LTspice 24.0.12 for Windows
Circuit: * C:\Users\colli\Desktop\EE\Synth\LTKick\WeinBridgeV1.asc
Start Time: Tue Nov 25 20:08:38 2025
solver = Normal
Maximum thread count: 22



Early termination of direct N-R iteration.
Direct Newton iteration failed to find .op point.  (Use ".option noopiter" to skip.)
Starting Gmin stepping
Gmin = 10
vernier = 0.5
vernier = 0.25
vernier = 0.125
Gmin = 6.68666
vernier = 0.0625
vernier = 0.03125
vernier = 0.015625
vernier = 0.0078125
Gmin = 6.72377
vernier = 0.00390625
vernier = 0.00195312
vernier = 0.000976562
vernier = 0.000488281
Gmin = 6.72131
Gmin = 0
Gmin stepping succeeded in finding the operating point.

.step rosc=6000
Heightened Def Con from 3.37714e-07 ++to 3.38714e-07
Heightened Def Con from 3.38714e-07 ++to 3.39714e-07
Heightened Def Con from 3.41778e-07 to 3.41778e-07
Heightened Def Con from 3.41778e-07 to 3.42794e-07
Heightened Def Con from 3.42997e-07 to 3.42997e-07
Heightened Def Con from 3.42997e-07 to 3.43247e-07
Heightened Def Con from 3.44136e-07 to 3.46136e-07
Heightened Def Con from 3.47233e-07 to 3.48248e-07
Heightened Def Con from 1.13468e-06 ++++++++++++++++++to 1.1347e-06
Heightened Def Con from 1.1347e-06 to 1.13482e-06
Heightened Def Con from 1.13482e-06 to 1.13495e-06
Heightened Def Con from 1.13495e-06 +++to 1.13595e-06
Heightened Def Con from 1.13595e-06 to 1.13607e-06
Heightened Def Con from 1.13607e-06 to 1.1361e-06
Heightened Def Con from 1.13613e-06 +to 1.13625e-06
Heightened Def Con from 1.13625e-06 to 1.13625e-06
Heightened Def Con from 1.13625e-06 to 1.13725e-06
Heightened Def Con from 1.13725e-06 to 1.13738e-06
Heightened Def Con from 1.13738e-06 to 1.13738e-06
Heightened Def Con from 1.13738e-06 to 1.13738e-06
Heightened Def Con from 1.13738e-06 to 1.13763e-06
Heightened Def Con from 1.13767e-06 to 1.13767e-06
Heightened Def Con from 1.13767e-06 to 1.13768e-06
Heightened Def Con from 1.13772e-06 to 1.13972e-06
Heightened Def Con from 1.13972e-06 to 1.14072e-06
Heightened Def Con from 1.14072e-06 to 1.14072e-06
Heightened Def Con from 1.14072e-06 +++++++++++++++++++++++to 1.14074e-06
Heightened Def Con from 1.14074e-06 +to 1.14174e-06
Heightened Def Con from 1.14174e-06 to 1.14176e-06
Heightened Def Con from 1.14176e-06 +to 1.14176e-06
Heightened Def Con from 1.14176e-06 to 1.14188e-06
Heightened Def Con from 1.14188e-06 +to 1.14188e-06
Heightened Def Con from 1.14188e-06 to 1.14188e-06
Heightened Def Con from 1.14188e-06 to 1.14188e-06
Heightened Def Con from 1.14188e-06 to 1.14188e-06
Heightened Def Con from 1.14188e-06 +to 1.14288e-06
Heightened Def Con from 1.14288e-06 +to 1.14292e-06
Heightened Def Con from 1.14292e-06 to 1.14306e-06
Heightened Def Con from 1.14306e-06 +++++++++++to 1.14306e-06
Heightened Def Con from 1.14306e-06 +to 1.14306e-06
Heightened Def Con from 1.14306e-06 +to 1.14406e-06
Heightened Def Con from 1.14406e-06 +to 1.14406e-06
Heightened Def Con from 1.14406e-06 to 1.14406e-06
Heightened Def Con from 1.14406e-06 +to 1.14606e-06
Heightened Def Con from 1.14606e-06 to 1.14607e-06
Heightened Def Con from 1.14607e-06 to 1.14707e-06
Heightened Def Con from 1.14707e-06 to 1.14707e-06
Heightened Def Con from 1.14707e-06 to 1.14707e-06
Heightened Def Con from 1.14707e-06 to 1.14907e-06
Heightened Def Con from 1.14907e-06 to 1.14907e-06
Heightened Def Con from 1.14907e-06 to 1.15107e-06
Heightened Def Con from 1.15113e-06 to 1.15126e-06
Heightened Def Con from 1.15126e-06 ++++++++to 1.15126e-06
Heightened Def Con from 1.15126e-06 to 1.15138e-06
Heightened Def Con from 1.15138e-06 to 1.15151e-06
Heightened Def Con from 1.15169e-06 ++to 1.1517e-06
Heightened Def Con from 1.1517e-06 +to 1.1517e-06
Heightened Def Con from 1.1517e-06 +++to 1.15182e-06
Heightened Def Con from 1.15182e-06 to 1.15282e-06
Heightened Def Con from 1.15282e-06 to 1.15482e-06
Heightened Def Con from 1.15493e-06 to 1.15593e-06
Heightened Def Con from 1.15593e-06 to 1.15793e-06
Heightened Def Con from 1.15806e-06 to 1.15807e-06
Heightened Def Con from 1.15807e-06 to 1.16007e-06
Heightened Def Con from 1.16033e-06 to 1.16233e-06
Heightened Def Con from 1.16279e-06 +++to 1.16379e-06
Heightened Def Con from 1.16379e-06 ++to 1.16392e-06
Heightened Def Con from 1.16392e-06 +to 1.16492e-06
Heightened Def Con from 1.16492e-06 to 1.16493e-06
Heightened Def Con from 1.16493e-06 to 1.16497e-06
Heightened Def Con from 1.16497e-06 to 1.16497e-06
Heightened Def Con from 1.16497e-06 to 1.16497e-06
Heightened Def Con from 1.16498e-06 to 1.16511e-06
Heightened Def Con from 1.16511e-06 to 1.16525e-06
Heightened Def Con from 1.16525e-06 +to 1.16525e-06
Heightened Def Con from 1.16525e-06 to 1.16637e-06
Heightened Def Con from 1.16637e-06 to 1.16637e-06
Heightened Def Con from 1.16637e-06 to 1.1665e-06
Heightened Def Con from 1.1665e-06 to 1.1665e-06
Heightened Def Con from 1.1665e-06 to 1.16651e-06
Heightened Def Con from 1.16651e-06 to 1.16653e-06
Heightened Def Con from 1.16653e-06 to 1.16666e-06
Heightened Def Con from 1.16666e-06 to 1.16666e-06
Heightened Def Con from 1.16666e-06 to 1.1668e-06
Heightened Def Con from 1.1668e-06 to 1.16682e-06
Heightened Def Con from 1.16682e-06 to 1.16682e-06
Heightened Def Con from 1.16682e-06 to 1.16682e-06
Heightened Def Con from 1.16682e-06 to 1.16682e-06
Heightened Def Con from 1.16682e-06 to 1.16682e-06
Heightened Def Con from 1.16682e-06 to 1.16682e-06
Heightened Def Con from 1.16682e-06 to 1.16682e-06
Heightened Def Con from 1.16682e-06 to 1.16782e-06
Heightened Def Con from 1.16782e-06 to 1.16783e-06
Heightened Def Con from 1.16783e-06 to 1.16783e-06
Heightened Def Con from 1.16783e-06 to 1.16783e-06
Heightened Def Con from 1.16783e-06 to 1.16783e-06
Heightened Def Con from 1.16783e-06 to 1.16795e-06
Heightened Def Con from 1.16795e-06 ++++++++to 1.16797e-06
Heightened Def Con from 1.16797e-06 to 1.16797e-06
Heightened Def Con from 1.16797e-06 to 1.16822e-06
Heightened Def Con from 1.16822e-06 to 1.16822e-06
Heightened Def Con from 1.16822e-06 to 1.16822e-06
Heightened Def Con from 1.16822e-06 to 1.16822e-06
Heightened Def Con from 1.16822e-06 to 1.16934e-06
Heightened Def Con from 1.16935e-06 to 1.16935e-06
Heightened Def Con from 1.16935e-06 to 1.16935e-06
Heightened Def Con from 1.16935e-06 to 1.16947e-06
Heightened Def Con from 1.16947e-06 to 1.16947e-06
Heightened Def Con from 1.16947e-06 to 1.16948e-06
Heightened Def Con from 1.16948e-06 to 1.16948e-06
Heightened Def Con from 1.16948e-06 ++++to 1.16962e-06
Heightened Def Con from 1.16962e-06 to 1.16962e-06
Heightened Def Con from 1.16962e-06 to 1.16976e-06
Heightened Def Con from 1.16976e-06 to 1.16988e-06
Heightened Def Con from 1.16988e-06 ++to 1.17089e-06
Heightened Def Con from 1.17089e-06 +to 1.17089e-06
Heightened Def Con from 1.17089e-06 to 1.17089e-06
Heightened Def Con from 1.17089e-06 to 1.17089e-06
Heightened Def Con from 1.17089e-06 to 1.17101e-06
Heightened Def Con from 1.17101e-06 +to 1.17101e-06
Heightened Def Con from 1.17101e-06 to 1.17201e-06
Heightened Def Con from 1.17201e-06 to 1.17314e-06
Heightened Def Con from 1.17339e-06 to 1.17339e-06
Heightened Def Con from 1.17339e-06 ++to 1.17339e-06
Heightened Def Con from 1.17339e-06 +to 1.17339e-06
Heightened Def Con from 1.17339e-06 to 1.17351e-06
Heightened Def Con from 1.17351e-06 to 1.17376e-06
Heightened Def Con from 1.17452e-06 to 1.17452e-06
Heightened Def Con from 1.17452e-06 ++++++to 1.17565e-06
Heightened Def Con from 1.17565e-06 to 1.17565e-06
Heightened Def Con from 1.17565e-06 ++++to 1.17577e-06
Heightened Def Con from 1.17577e-06 to 1.1759e-06
Heightened Def Con from 1.1759e-06 to 1.17591e-06
Heightened Def Con from 1.17591e-06 to 1.17591e-06
Heightened Def Con from 1.17591e-06 to 1.17591e-06
Heightened Def Con from 1.17591e-06 to 1.17591e-06
Heightened Def Con from 1.17591e-06 to 1.17592e-06
Heightened Def Con from 1.17592e-06 to 1.17604e-06
Heightened Def Con from 1.17604e-06 +++++to 1.17704e-06
Heightened Def Con from 1.17704e-06 to 1.17706e-06
Heightened Def Con from 1.17706e-06 ++++to 1.17706e-06
Heightened Def Con from 1.17706e-06 +++++to 1.17706e-06
Heightened Def Con from 1.17706e-06 +++++++++++++++++++++++to 1.17706e-06
Heightened Def Con from 1.17706e-06 +to 1.17706e-06
Heightened Def Con from 1.17706e-06 +to 1.17706e-06
Heightened Def Con from 1.17706e-06 +++++++++to 1.17706e-06
Heightened Def Con from 1.17706e-06 ++++++++++to 1.17806e-06
Heightened Def Con from 1.17806e-06 +++to 1.17806e-06
Heightened Def Con from 1.17806e-06 ++to 1.17807e-06
Heightened Def Con from 1.17807e-06 +to 1.1782e-06
Heightened Def Con from 1.1782e-06 ++++++++++++++++++++++++++to 1.1782e-06
Heightened Def Con from 1.1782e-06 +++to 1.1782e-06
Heightened Def Con from 1.1782e-06 to 1.1782e-06
Heightened Def Con from 1.1782e-06 ++++++++to 1.17834e-06
Heightened Def Con from 1.17834e-06 +to 1.17934e-06
Heightened Def Con from 1.17934e-06 to 1.17934e-06
Heightened Def Con from 1.17934e-06 to 1.17934e-06
Heightened Def Con from 1.17934e-06 +++++++++++to 1.17934e-06
Heightened Def Con from 1.17934e-06 ++++++to 1.17934e-06
Heightened Def Con from 1.17934e-06 to 1.17934e-06
Heightened Def Con from 1.17934e-06 +++++++++++++++++++++++to 1.18034e-06
Heightened Def Con from 1.18034e-06 to 1.18034e-06
Heightened Def Con from 1.18034e-06 ++++++to 1.18048e-06
Heightened Def Con from 1.18049e-06 to 1.18149e-06
Heightened Def Con from 1.18149e-06 ++++++++to 1.18149e-06
Heightened Def Con from 1.18149e-06 +++++++++++++++++++++++++++++++to 1.18161e-06
Heightened Def Con from 1.18161e-06 ++++++++++++++to 1.18161e-06
Heightened Def Con from 1.18161e-06 +++to 1.18261e-06
Heightened Def Con from 1.18261e-06 ++++to 1.18261e-06
Heightened Def Con from 1.18261e-06 +to 1.18261e-06
Heightened Def Con from 1.18261e-06 +++to 1.18265e-06
Heightened Def Con from 1.18265e-06 ++++to 1.18265e-06
Heightened Def Con from 1.18265e-06 +to 1.18265e-06
Heightened Def Con from 1.18265e-06 +to 1.18265e-06
Heightened Def Con from 1.18265e-06 to 1.18265e-06
Heightened Def Con from 1.18265e-06 ++to 1.18265e-06
Heightened Def Con from 1.18265e-06 to 1.18265e-06
Heightened Def Con from 1.18265e-06 to 1.18265e-06
Heightened Def Con from 1.18265e-06 +to 1.18265e-06
Heightened Def Con from 1.18265e-06 +to 1.18265e-06
Heightened Def Con from 1.18265e-06 +++to 1.18265e-06
Heightened Def Con from 1.18265e-06 to 1.18265e-06
Heightened Def Con from 1.18265e-06 +++++to 1.18277e-06
Heightened Def Con from 1.18277e-06 ++++++++++to 1.18377e-06
Heightened Def Con from 1.18377e-06 +++++to 1.18377e-06
Heightened Def Con from 1.18377e-06 +to 1.18377e-06
Heightened Def Con from 1.18377e-06 to 1.18377e-06
Heightened Def Con from 1.18377e-06 +++++to 1.18377e-06
Heightened Def Con from 1.18377e-06 +++to 1.1838e-06
Heightened Def Con from 1.1838e-06 +++++++to 1.1838e-06
Heightened Def Con from 1.1838e-06 ++to 1.1838e-06
Heightened Def Con from 1.1838e-06 to 1.1838e-06
Heightened Def Con from 1.1838e-06 ++++++to 1.18382e-06
Heightened Def Con from 1.18382e-06 +to 1.18482e-06
Heightened Def Con from 1.18482e-06 to 1.18482e-06
Heightened Def Con from 1.18482e-06 ++++to 1.18482e-06
Heightened Def Con from 1.18482e-06 +to 1.18482e-06
Heightened Def Con from 1.18482e-06 +to 1.18482e-06
Heightened Def Con from 1.18482e-06 +++to 1.18482e-06
Heightened Def Con from 1.18482e-06 +++++++++++to 1.18482e-06
Heightened Def Con from 1.18482e-06 +++++++to 1.18482e-06
Heightened Def Con from 1.18482e-06 ++to 1.18482e-06
Heightened Def Con from 1.18482e-06 +++to 1.18495e-06
Heightened Def Con from 1.18495e-06 ++++to 1.18495e-06
Heightened Def Con from 1.18495e-06 to 1.18495e-06
Heightened Def Con from 1.18495e-06 ++++to 1.18495e-06
Heightened Def Con from 1.18495e-06 +++++++to 1.18495e-06
Heightened Def Con from 1.18495e-06 +++to 1.18495e-06
Heightened Def Con from 1.18495e-06 to 1.18495e-06
Heightened Def Con from 1.18495e-06 +++++++to 1.18497e-06
Heightened Def Con from 1.18497e-06 +to 1.18497e-06
Heightened Def Con from 1.18497e-06 +++++++++to 1.18497e-06
Heightened Def Con from 1.18497e-06 ++to 1.18497e-06
Heightened Def Con from 1.18497e-06 ++++++++++++++++++++++++++++++++++to 1.18497e-06
Heightened Def Con from 1.18497e-06 ++to 1.18497e-06
Heightened Def Con from 1.18497e-06 to 1.18497e-06
Heightened Def Con from 1.18497e-06 +to 1.18509e-06
Heightened Def Con from 1.18509e-06 ++++to 1.18509e-06
Heightened Def Con from 1.18509e-06 +to 1.18609e-06
Heightened Def Con from 1.18609e-06 ++++++to 1.18609e-06
Heightened Def Con from 1.18609e-06 ++++++++to 1.18609e-06
Heightened Def Con from 1.18609e-06 ++to 1.18611e-06
Heightened Def Con from 1.18611e-06 +to 1.18611e-06
Heightened Def Con from 1.18611e-06 +to 1.18611e-06
Heightened Def Con from 1.18611e-06 +++++++++++++++to 1.18611e-06
Heightened Def Con from 1.18611e-06 ++++to 1.18611e-06
Heightened Def Con from 1.18611e-06 ++++++++to 1.18611e-06
Heightened Def Con from 1.18611e-06 +to 1.18624e-06
Heightened Def Con from 1.18624e-06 to 1.18624e-06
Heightened Def Con from 1.18624e-06 +++++to 1.18725e-06
Heightened Def Con from 1.18725e-06 +++to 1.18725e-06
Heightened Def Con from 1.18725e-06 to 1.18725e-06
Heightened Def Con from 1.18725e-06 +++to 1.18825e-06
Heightened Def Con from 1.18825e-06 +to 1.18825e-06
Heightened Def Con from 1.18825e-06 +++++to 1.18827e-06
Heightened Def Con from 1.18827e-06 to 1.18827e-06
Heightened Def Con from 1.18827e-06 +++to 1.18828e-06
Heightened Def Con from 1.18828e-06 ++++to 1.18928e-06
Heightened Def Con from 1.18928e-06 +to 1.18928e-06
Heightened Def Con from 1.18928e-06 ++++to 1.19029e-06
Heightened Def Con from 1.19029e-06 ++++++++++to 1.19129e-06
Heightened Def Con from 1.19129e-06 ++++to 1.19129e-06
Heightened Def Con from 1.19129e-06 +++++++++++++to 1.1913e-06
Heightened Def Con from 1.1913e-06 +++++to 1.1913e-06
Heightened Def Con from 1.1913e-06 +++++++++to 1.1913e-06
Heightened Def Con from 1.1913e-06 +++++++++++to 1.1913e-06
Heightened Def Con from 1.1913e-06 ++++to 1.1913e-06
Heightened Def Con from 1.1913e-06 +++++to 1.1923e-06
Heightened Def Con from 1.1923e-06 +++to 1.1923e-06
Heightened Def Con from 1.1923e-06 ++to 1.19243e-06
Heightened Def Con from 1.19243e-06 ++++++++++++++++++++++++++++to 1.19343e-06
Heightened Def Con from 1.19343e-06 +++++to 1.19343e-06
Heightened Def Con from 1.19343e-06 +++to 1.19343e-06
Heightened Def Con from 1.19343e-06 ++++++++++++++++++++++to 1.19343e-06
Heightened Def Con from 1.19343e-06 ++++++++++++to 1.19355e-06
Heightened Def Con from 1.19355e-06 ++to 1.19355e-06
Heightened Def Con from 1.19355e-06 ++++to 1.19355e-06
Heightened Def Con from 1.19355e-06 +++++++++++++++to 1.19357e-06
Heightened Def Con from 1.19357e-06 +++++++++++++++++to 1.19357e-06
Heightened Def Con from 1.19357e-06 ++++++++++++++to 1.19359e-06
Heightened Def Con from 1.19359e-06 ++++++++++++to 1.19371e-06
Heightened Def Con from 1.19371e-06 ++++to 1.19384e-06
Heightened Def Con from 1.19384e-06 ++to 1.19386e-06
Heightened Def Con from 1.19386e-06 ++++++++to 1.19386e-06
Heightened Def Con from 1.19386e-06 +++++++++++++to 1.19386e-06
Heightened Def Con from 1.19386e-06 +++to 1.19386e-06
Heightened Def Con from 1.19386e-06 ++++++to 1.19386e-06
Heightened Def Con from 1.19386e-06 +++++++++++++++++++to 1.19386e-06
Heightened Def Con from 1.19386e-06 ++to 1.19386e-06
Heightened Def Con from 1.19386e-06 +++to 1.19399e-06
Heightened Def Con from 1.19399e-06 to 1.19399e-06
Heightened Def Con from 1.19399e-06 +++++++to 1.19399e-06
Heightened Def Con from 1.19399e-06 ++++++++to 1.19499e-06
Heightened Def Con from 1.19499e-06 ++to 1.19499e-06
Heightened Def Con from 1.19499e-06 +to 1.19599e-06
Heightened Def Con from 1.19599e-06 +++++to 1.19599e-06
Heightened Def Con from 1.19599e-06 +to 1.19599e-06
Heightened Def Con from 1.19599e-06 +++++++++++++to 1.19599e-06
Heightened Def Con from 1.19599e-06 ++++++++to 1.19599e-06
Heightened Def Con from 1.19599e-06 +++++++to 1.196e-06
Heightened Def Con from 1.196e-06 to 1.196e-06
Heightened Def Con from 1.196e-06 ++to 1.19601e-06
Heightened Def Con from 1.19601e-06 +to 1.19601e-06
Heightened Def Con from 1.19601e-06 ++to 1.19613e-06
Heightened Def Con from 1.19613e-06 +to 1.19613e-06
Heightened Def Con from 1.19613e-06 ++++++to 1.19713e-06
Heightened Def Con from 1.19713e-06 +++++to 1.19726e-06
Heightened Def Con from 1.19726e-06 +to 1.19826e-06
Heightened Def Con from 1.19826e-06 ++to 1.19838e-06
Heightened Def Con from 1.1984e-06 +++++to 1.1994e-06
Heightened Def Con from 1.1994e-06 ++to 1.1994e-06
Heightened Def Con from 1.1994e-06 to 1.1994e-06
Heightened Def Con from 1.1994e-06 +to 1.1994e-06
Heightened Def Con from 1.1994e-06 ++to 1.1994e-06
Heightened Def Con from 1.1994e-06 +to 1.1994e-06
Heightened Def Con from 1.1994e-06 to 1.1994e-06
Heightened Def Con from 1.1994e-06 +to 1.19942e-06
Heightened Def Con from 1.19942e-06 to 1.19942e-06
Heightened Def Con from 1.19942e-06 to 1.19942e-06
Heightened Def Con from 1.19942e-06 to 1.19942e-06
Heightened Def Con from 1.19942e-06 to 1.19942e-06
Heightened Def Con from 1.19942e-06 ++to 1.19942e-06
Heightened Def Con from 1.19942e-06 +to 1.20042e-06
Heightened Def Con from 1.20042e-06 ++to 1.20044e-06
Heightened Def Con from 1.20044e-06 ++++to 1.20044e-06
Heightened Def Con from 1.20044e-06 ++to 1.20044e-06
Heightened Def Con from 1.20044e-06 +to 1.20044e-06
Heightened Def Con from 1.20044e-06 +to 1.20044e-06
Heightened Def Con from 1.20044e-06 ++to 1.20044e-06
Heightened Def Con from 1.20044e-06 to 1.20044e-06
Heightened Def Con from 1.20044e-06 +to 1.20044e-06
Heightened Def Con from 1.20044e-06 to 1.20044e-06
Heightened Def Con from 1.20044e-06 +++to 1.20045e-06
Heightened Def Con from 1.20046e-06 to 1.20046e-06
Heightened Def Con from 1.20046e-06 +to 1.20058e-06
Heightened Def Con from 1.20058e-06 to 1.20058e-06
Heightened Def Con from 1.20058e-06 ++to 1.20058e-06
Heightened Def Con from 1.20058e-06 to 1.20058e-06
Heightened Def Con from 1.20058e-06 to 1.20058e-06
Heightened Def Con from 1.20058e-06 +++to 1.20058e-06
Heightened Def Con from 1.20058e-06 to 1.20058e-06
Heightened Def Con from 1.20058e-06 +to 1.20058e-06
Heightened Def Con from 1.20058e-06 ++++to 1.20058e-06
Heightened Def Con from 1.20058e-06 +to 1.20058e-06
Heightened Def Con from 1.20058e-06 to 1.20058e-06
Heightened Def Con from 1.20058e-06 to 1.20058e-06
Heightened Def Con from 1.20058e-06 to 1.20058e-06
Heightened Def Con from 1.20058e-06 ++to 1.20058e-06
Heightened Def Con from 1.20058e-06 +to 1.20058e-06
Heightened Def Con from 1.20058e-06 +++to 1.20058e-06
Heightened Def Con from 1.20058e-06 +to 1.20058e-06
Heightened Def Con from 1.20058e-06 +to 1.20058e-06
Heightened Def Con from 1.20058e-06 +to 1.20058e-06
Heightened Def Con from 1.20058e-06 to 1.20058e-06
Heightened Def Con from 1.20058e-06 ++to 1.20058e-06
Heightened Def Con from 1.20058e-06 +to 1.20058e-06
Heightened Def Con from 1.20058e-06 +to 1.20058e-06
Heightened Def Con from 1.20058e-06 ++to 1.2006e-06
Heightened Def Con from 1.2006e-06 to 1.2006e-06
Heightened Def Con from 1.2006e-06 +to 1.20062e-06
Heightened Def Con from 1.20062e-06 +++to 1.20074e-06
Heightened Def Con from 1.20074e-06 to 1.20074e-06
Heightened Def Con from 1.20074e-06 +to 1.20087e-06
Heightened Def Con from 1.20087e-06 to 1.20087e-06
Heightened Def Con from 1.20087e-06 ++++to 1.20087e-06
Heightened Def Con from 1.20087e-06 to 1.20087e-06
Heightened Def Con from 1.20087e-06 to 1.20087e-06
Heightened Def Con from 1.20087e-06 +++to 1.20087e-06
Heightened Def Con from 1.20087e-06 ++++++++to 1.20087e-06
Heightened Def Con from 1.20087e-06 to 1.20087e-06
Heightened Def Con from 1.20087e-06 to 1.20087e-06
Heightened Def Con from 1.20087e-06 ++to 1.20187e-06
Heightened Def Con from 1.20187e-06 +to 1.20187e-06
Heightened Def Con from 1.20187e-06 to 1.20187e-06
Heightened Def Con from 1.20187e-06 +to 1.20187e-06
Heightened Def Con from 1.20187e-06 to 1.20187e-06
Heightened Def Con from 1.20187e-06 +to 1.20187e-06
Heightened Def Con from 1.20187e-06 ++to 1.20187e-06
Heightened Def Con from 1.20187e-06 +to 1.20187e-06
Heightened Def Con from 1.20187e-06 to 1.20189e-06
Heightened Def Con from 1.20189e-06 +++++to 1.20189e-06
Heightened Def Con from 1.20189e-06 ++++to 1.20189e-06
Heightened Def Con from 1.20189e-06 +to 1.20189e-06
Heightened Def Con from 1.20189e-06 +to 1.20189e-06
Heightened Def Con from 1.20189e-06 +to 1.20289e-06
Heightened Def Con from 1.2046e-06 to 1.20462e-06
Heightened Def Con from 1.20462e-06 to 1.20562e-06
Heightened Def Con from 1.20562e-06 to 1.20562e-06
Heightened Def Con from 1.20562e-06 +++to 1.20562e-06
Heightened Def Con from 1.20562e-06 +to 1.20562e-06
Heightened Def Con from 1.20562e-06 to 1.20562e-06
Heightened Def Con from 1.20562e-06 +to 1.20562e-06
Heightened Def Con from 1.20562e-06 +to 1.20563e-06
Heightened Def Con from 1.20563e-06 +to 1.20563e-06
Heightened Def Con from 1.20563e-06 +to 1.20564e-06
Heightened Def Con from 1.20564e-06 to 1.20664e-06
Heightened Def Con from 1.20664e-06 ++++++to 1.20664e-06
Heightened Def Con from 1.20664e-06 to 1.20664e-06
Heightened Def Con from 1.20664e-06 +to 1.20664e-06
Heightened Def Con from 1.20664e-06 ++++++to 1.20664e-06
Heightened Def Con from 1.20664e-06 to 1.20664e-06
Heightened Def Con from 1.20664e-06 +++++to 1.20677e-06
Heightened Def Con from 1.20677e-06 ++++to 1.20677e-06
Heightened Def Con from 1.20677e-06 +to 1.20677e-06
Heightened Def Con from 1.20677e-06 +++++++to 1.20677e-06
Heightened Def Con from 1.20677e-06 +to 1.20677e-06
Heightened Def Con from 1.20677e-06 ++++++++++to 1.20677e-06
Heightened Def Con from 1.20677e-06 +to 1.20677e-06
Heightened Def Con from 1.20677e-06 to 1.20677e-06
Heightened Def Con from 1.20677e-06 +++to 1.20877e-06
Heightened Def Con from 1.20877e-06 ++++++++++++++++++to 1.2089e-06
Heightened Def Con from 1.2089e-06 ++++to 1.2089e-06
Heightened Def Con from 1.2089e-06 ++++++++++++++++++++++++to 1.2089e-06
Heightened Def Con from 1.2089e-06 +++++++++++to 1.2089e-06
Heightened Def Con from 1.2089e-06 ++++to 1.2089e-06
Heightened Def Con from 1.2089e-06 +++to 1.2089e-06
Heightened Def Con from 1.2089e-06 +++++to 1.2089e-06
Heightened Def Con from 1.2089e-06 +++++to 1.20902e-06
Heightened Def Con from 1.20902e-06 ++++++++++++++to 1.20902e-06
Heightened Def Con from 1.20902e-06 ++++++++++++++++++++++++++++++to 1.20902e-06
Heightened Def Con from 1.20902e-06 +++++++++to 1.20902e-06
Heightened Def Con from 1.20902e-06 ++++to 1.20903e-06
Heightened Def Con from 1.20903e-06 to 1.20903e-06
Heightened Def Con from 1.20903e-06 to 1.20903e-06
Heightened Def Con from 1.20903e-06 ++++to 1.20915e-06
Heightened Def Con from 1.20915e-06 +to 1.20915e-06
Heightened Def Con from 1.20915e-06 +++to 1.20915e-06
Heightened Def Con from 1.20915e-06 +to 1.20915e-06
Heightened Def Con from 1.20915e-06 +to 1.20915e-06
Heightened Def Con from 1.20915e-06 +++++++to 1.21015e-06
Heightened Def Con from 1.21015e-06 ++++to 1.21015e-06
Heightened Def Con from 1.21015e-06 +to 1.21015e-06
Heightened Def Con from 1.21015e-06 +++to 1.21115e-06
Heightened Def Con from 1.21115e-06 +to 1.21215e-06
Heightened Def Con from 1.21415e-06 ++to 1.21415e-06
Heightened Def Con from 1.21415e-06 +++++++++++to 1.21428e-06
Heightened Def Con from 1.21428e-06 +to 1.21428e-06
Heightened Def Con from 1.21428e-06 ++++++to 1.21428e-06
Heightened Def Con from 1.21428e-06 ++to 1.21428e-06
Heightened Def Con from 1.21428e-06 ++++to 1.21441e-06
Heightened Def Con from 1.21441e-06 +++++to 1.21442e-06
Heightened Def Con from 1.21442e-06 +to 1.21442e-06
Heightened Def Con from 1.21442e-06 to 1.21442e-06
Heightened Def Con from 1.21442e-06 ++to 1.21442e-06
Heightened Def Con from 1.21442e-06 ++++++++++++++++++++++++++++++to 1.21542e-06
Heightened Def Con from 1.21542e-06 ++to 1.21544e-06
Heightened Def Con from 1.21544e-06 to 1.21544e-06
Heightened Def Con from 1.21544e-06 to 1.21544e-06
Heightened Def Con from 1.21544e-06 +to 1.21544e-06
Heightened Def Con from 1.21544e-06 +++++++++++to 1.21544e-06
Heightened Def Con from 1.21544e-06 +to 1.21544e-06
Heightened Def Con from 1.21544e-06 to 1.21544e-06
Heightened Def Con from 1.21544e-06 ++++++++to 1.21544e-06
Heightened Def Con from 1.21544e-06 +++to 1.21544e-06
Heightened Def Con from 1.21544e-06 +++++++to 1.21644e-06
Heightened Def Con from 1.21644e-06 ++to 1.21644e-06
Heightened Def Con from 1.21644e-06 to 1.21644e-06
Heightened Def Con from 1.21644e-06 to 1.21644e-06
Heightened Def Con from 1.21644e-06 to 1.21644e-06
Heightened Def Con from 1.21644e-06 +to 1.21744e-06
Heightened Def Con from 1.21744e-06 ++to 1.21844e-06
Heightened Def Con from 1.21844e-06 to 1.21844e-06
Heightened Def Con from 1.21844e-06 +to 1.21856e-06
Heightened Def Con from 1.21856e-06 to 1.21856e-06
Heightened Def Con from 1.21856e-06 to 1.21858e-06
Heightened Def Con from 1.21858e-06 +to 1.21858e-06
Heightened Def Con from 1.21858e-06 to 1.21958e-06
Heightened Def Con from 1.21958e-06 +++++to 1.2196e-06
Heightened Def Con from 1.2196e-06 +to 1.2196e-06
Heightened Def Con from 1.2196e-06 to 1.2196e-06
Heightened Def Con from 1.2196e-06 to 1.2196e-06
Heightened Def Con from 1.2196e-06 to 1.2196e-06
Heightened Def Con from 1.2196e-06 +to 1.2196e-06
Heightened Def Con from 1.2196e-06 +++to 1.2196e-06
Heightened Def Con from 1.2196e-06 ++++++to 1.22061e-06
Heightened Def Con from 1.22061e-06 +to 1.22062e-06
Heightened Def Con from 1.22062e-06 ++++to 1.22062e-06
Heightened Def Con from 1.22062e-06 +to 1.22062e-06
Heightened Def Con from 1.22062e-06 +++++to 1.22062e-06
Heightened Def Con from 1.22062e-06 +to 1.22064e-06
Heightened Def Con from 1.22064e-06 +++++to 1.22064e-06
Heightened Def Con from 1.22064e-06 to 1.22064e-06
Heightened Def Con from 1.22064e-06 to 1.22064e-06
Heightened Def Con from 1.22064e-06 ++++to 1.22064e-06
Heightened Def Con from 1.22064e-06 to 1.22064e-06
Heightened Def Con from 1.22064e-06 ++to 1.22165e-06
Heightened Def Con from 1.22165e-06 to 1.22165e-06
Heightened Def Con from 1.22165e-06 to 1.22165e-06
Heightened Def Con from 1.22165e-06 to 1.22165e-06
Heightened Def Con from 1.22165e-06 +to 1.22178e-06
Heightened Def Con from 1.22178e-06 +to 1.22178e-06
Heightened Def Con from 1.22178e-06 to 1.22178e-06
Heightened Def Con from 1.22178e-06 to 1.22178e-06
Heightened Def Con from 1.22178e-06 +to 1.22178e-06
Heightened Def Con from 1.22178e-06 ++to 1.22178e-06
Heightened Def Con from 1.22178e-06 +to 1.2218e-06
Heightened Def Con from 1.2218e-06 +to 1.2218e-06
Heightened Def Con from 1.2218e-06 ++++++++to 1.2218e-06
Heightened Def Con from 1.2218e-06 +to 1.2218e-06
Heightened Def Con from 1.2218e-06 ++++++to 1.2218e-06
Heightened Def Con from 1.2218e-06 +to 1.2218e-06
Heightened Def Con from 1.2218e-06 to 1.2218e-06
Heightened Def Con from 1.2218e-06 to 1.2218e-06
Heightened Def Con from 1.2218e-06 to 1.2218e-06
Heightened Def Con from 1.2218e-06 +to 1.2228e-06
Heightened Def Con from 1.2228e-06 +to 1.2228e-06
Heightened Def Con from 1.2228e-06 to 1.2238e-06
Heightened Def Con from 1.2238e-06 to 1.2238e-06
Heightened Def Con from 1.2238e-06 ++to 1.2238e-06
Heightened Def Con from 1.2238e-06 to 1.22393e-06
Heightened Def Con from 1.22393e-06 ++to 1.22405e-06
Heightened Def Con from 1.2243e-06 ++++++to 1.2243e-06
Heightened Def Con from 1.2243e-06 +to 1.22443e-06
Heightened Def Con from 1.22443e-06 to 1.22443e-06
Heightened Def Con from 1.22443e-06 ++++++++++++++++++++++to 1.22643e-06
Heightened Def Con from 1.22643e-06 +to 1.22743e-06
Heightened Def Con from 1.22743e-06 ++to 1.22743e-06
Heightened Def Con from 1.22743e-06 ++to 1.22743e-06
Heightened Def Con from 1.22743e-06 to 1.22743e-06
Heightened Def Con from 1.22743e-06 +to 1.22743e-06
Heightened Def Con from 1.22743e-06 ++++to 1.22743e-06
Heightened Def Con from 1.22743e-06 ++++++to 1.22743e-06
Heightened Def Con from 1.22743e-06 to 1.22743e-06
Heightened Def Con from 1.22743e-06 ++to 1.22843e-06
Heightened Def Con from 1.22843e-06 +to 1.22845e-06
Heightened Def Con from 1.22845e-06 +to 1.22845e-06
Heightened Def Con from 1.22845e-06 to 1.22845e-06
Heightened Def Con from 1.22845e-06 +to 1.22857e-06
Heightened Def Con from 1.22857e-06 +to 1.22857e-06
Heightened Def Con from 1.22857e-06 +to 1.22857e-06
Heightened Def Con from 1.22857e-06 ++to 1.2287e-06
Heightened Def Con from 1.2287e-06 +++++++++++++++++++++++++++++to 1.2287e-06
Heightened Def Con from 1.2287e-06 +to 1.22871e-06
Heightened Def Con from 1.22871e-06 +to 1.22971e-06
Heightened Def Con from 1.22971e-06 to 1.23071e-06
Heightened Def Con from 1.23071e-06 to 1.23071e-06
Heightened Def Con from 1.23071e-06 to 1.23071e-06
Heightened Def Con from 1.23071e-06 to 1.23071e-06
Heightened Def Con from 1.23071e-06 +to 1.23084e-06
Heightened Def Con from 1.23084e-06 to 1.23084e-06
Heightened Def Con from 1.23084e-06 +++to 1.23084e-06
Heightened Def Con from 1.23084e-06 to 1.23184e-06
Heightened Def Con from 1.23184e-06 to 1.23184e-06
Heightened Def Con from 1.23184e-06 ++++to 1.23284e-06
Heightened Def Con from 1.23284e-06 to 1.23296e-06
Heightened Def Con from 1.23296e-06 to 1.23296e-06
Heightened Def Con from 1.23296e-06 +to 1.23298e-06
Heightened Def Con from 1.23298e-06 to 1.23298e-06
Heightened Def Con from 1.23298e-06 +to 1.23298e-06
Heightened Def Con from 1.23298e-06 to 1.23298e-06
Heightened Def Con from 1.23298e-06 ++to 1.23298e-06
Heightened Def Con from 1.23298e-06 +to 1.23298e-06
Heightened Def Con from 1.23298e-06 to 1.23298e-06
Heightened Def Con from 1.23298e-06 to 1.23311e-06
Heightened Def Con from 1.23311e-06 to 1.23412e-06
Heightened Def Con from 1.23412e-06 to 1.23412e-06
Heightened Def Con from 1.23412e-06 to 1.23412e-06
Heightened Def Con from 1.23412e-06 +to 1.23412e-06
Heightened Def Con from 1.23412e-06 to 1.23412e-06
Heightened Def Con from 1.23412e-06 to 1.23414e-06
Heightened Def Con from 1.23414e-06 to 1.23414e-06
Heightened Def Con from 1.23414e-06 +to 1.23414e-06
Heightened Def Con from 1.23414e-06 to 1.23527e-06
Heightened Def Con from 1.23527e-06 +to 1.23527e-06
Heightened Def Con from 1.23527e-06 +++to 1.23527e-06
Heightened Def Con from 1.23527e-06 +to 1.23527e-06
Heightened Def Con from 1.23527e-06 ++to 1.23539e-06
Heightened Def Con from 1.23539e-06 to 1.23539e-06
Heightened Def Con from 1.23539e-06 +to 1.23552e-06
Heightened Def Con from 1.23552e-06 +to 1.23552e-06
Heightened Def Con from 1.23552e-06 ++to 1.23552e-06
Heightened Def Con from 1.23552e-06 to 1.23552e-06
Heightened Def Con from 1.23552e-06 to 1.23752e-06
Heightened Def Con from 1.23753e-06 to 1.23753e-06
Heightened Def Con from 1.23753e-06 +++to 1.23753e-06
Heightened Def Con from 1.23753e-06 to 1.23753e-06
Heightened Def Con from 1.23753e-06 +++++to 1.23853e-06
Heightened Def Con from 1.23853e-06 to 1.23866e-06
Heightened Def Con from 1.23866e-06 +to 1.23866e-06
Heightened Def Con from 1.23866e-06 to 1.23966e-06
Heightened Def Con from 1.23966e-06 to 1.23966e-06
Heightened Def Con from 1.23966e-06 to 1.23966e-06
Heightened Def Con from 1.23966e-06 +to 1.23966e-06
Heightened Def Con from 1.23966e-06 +++to 1.23966e-06
Heightened Def Con from 1.23966e-06 to 1.23966e-06
Heightened Def Con from 1.23966e-06 to 1.23966e-06
Heightened Def Con from 1.23966e-06 to 1.23966e-06
Heightened Def Con from 1.23966e-06 to 1.24068e-06
Heightened Def Con from 1.24068e-06 to 1.24068e-06
Heightened Def Con from 1.24068e-06 +to 1.24168e-06
Heightened Def Con from 1.24168e-06 +++to 1.24182e-06
Heightened Def Con from 1.24185e-06 +to 1.24187e-06
Heightened Def Con from 1.24187e-06 +to 1.24188e-06
Heightened Def Con from 1.24188e-06 ++to 1.24188e-06
Heightened Def Con from 1.24188e-06 to 1.24188e-06
Heightened Def Con from 1.24188e-06 ++to 1.24188e-06
Heightened Def Con from 1.24188e-06 ++to 1.24188e-06
Heightened Def Con from 1.24188e-06 +to 1.24188e-06
Heightened Def Con from 1.24188e-06 to 1.24188e-06
Heightened Def Con from 1.24188e-06 +++++++++to 1.24188e-06
Heightened Def Con from 1.24188e-06 +to 1.24201e-06
Heightened Def Con from 1.24201e-06 to 1.24201e-06
Heightened Def Con from 1.24201e-06 +to 1.24201e-06
Heightened Def Con from 1.24201e-06 ++to 1.24201e-06
Heightened Def Con from 1.24201e-06 +++to 1.24201e-06
Heightened Def Con from 1.24201e-06 ++to 1.24201e-06
Heightened Def Con from 1.24201e-06 to 1.24201e-06
Heightened Def Con from 1.24201e-06 ++to 1.24215e-06
Heightened Def Con from 1.24216e-06 ++++to 1.24216e-06
Heightened Def Con from 1.24216e-06 to 1.24216e-06
Heightened Def Con from 1.24216e-06 ++to 1.24217e-06
Heightened Def Con from 1.24217e-06 +to 1.24217e-06
Heightened Def Con from 1.24217e-06 +++to 1.24217e-06
Heightened Def Con from 1.24217e-06 ++to 1.24219e-06
Heightened Def Con from 1.24219e-06 +++to 1.24219e-06
Heightened Def Con from 1.24219e-06 +to 1.24219e-06
Heightened Def Con from 1.24219e-06 ++to 1.2422e-06
Heightened Def Con from 1.2422e-06 +to 1.24233e-06
Heightened Def Con from 1.24233e-06 +to 1.24233e-06
Heightened Def Con from 1.24233e-06 +++to 1.24233e-06
Heightened Def Con from 1.24233e-06 ++to 1.24233e-06
Heightened Def Con from 1.24233e-06 to 1.24233e-06
Heightened Def Con from 1.24233e-06 +++to 1.24233e-06
Heightened Def Con from 1.24233e-06 +to 1.24233e-06
Heightened Def Con from 1.24233e-06 ++++to 1.24233e-06
Heightened Def Con from 1.24233e-06 ++++to 1.24235e-06
Heightened Def Con from 1.24235e-06 to 1.24235e-06
Heightened Def Con from 1.24235e-06 ++++++++++++to 1.24335e-06
Heightened Def Con from 1.24335e-06 +++++to 1.24335e-06
Heightened Def Con from 1.24335e-06 ++to 1.24435e-06
Heightened Def Con from 1.24435e-06 ++++to 1.24535e-06
Heightened Def Con from 1.24535e-06 +++to 1.24635e-06
Heightened Def Con from 1.24708e-06 to 1.24708e-06
Heightened Def Con from 1.24708e-06 to 1.24709e-06
Heightened Def Con from 1.24709e-06 to 1.24709e-06
Heightened Def Con from 1.24709e-06 to 1.24712e-06
Heightened Def Con from 1.24712e-06 to 1.24812e-06
Heightened Def Con from 1.24812e-06 to 1.24815e-06
Heightened Def Con from 1.24816e-06 +to 1.24916e-06
Heightened Def Con from 1.24916e-06 +to 1.24916e-06
Heightened Def Con from 1.24916e-06 to 1.24916e-06
Heightened Def Con from 1.24916e-06 to 1.24916e-06
Heightened Def Con from 1.24916e-06 to 1.24928e-06
Heightened Def Con from 1.24928e-06 to 1.24928e-06
Heightened Def Con from 1.24928e-06 ++to 1.24941e-06
Heightened Def Con from 1.24941e-06 +++to 1.24942e-06
Heightened Def Con from 1.24942e-06 to 1.24942e-06
Heightened Def Con from 1.24942e-06 +to 1.24942e-06
Heightened Def Con from 1.24942e-06 +++to 1.24942e-06
Heightened Def Con from 1.24942e-06 +++to 1.25042e-06
Heightened Def Con from 1.25042e-06 +to 1.25042e-06
Heightened Def Con from 1.25042e-06 +to 1.25042e-06
Heightened Def Con from 1.25042e-06 ++to 1.25042e-06
Heightened Def Con from 1.25042e-06 +++to 1.25042e-06
Heightened Def Con from 1.25042e-06 +to 1.25042e-06
Heightened Def Con from 1.25042e-06 to 1.25042e-06
Heightened Def Con from 1.25042e-06 +to 1.25042e-06
Heightened Def Con from 1.25042e-06 to 1.25042e-06
Heightened Def Con from 1.25042e-06 +++++to 1.25055e-06
Heightened Def Con from 1.25055e-06 to 1.25055e-06
Heightened Def Con from 1.25055e-06 +to 1.25055e-06
Heightened Def Con from 1.25055e-06 to 1.25055e-06
Heightened Def Con from 1.25055e-06 +++++to 1.25068e-06
Heightened Def Con from 1.25093e-06 +to 1.25093e-06
Heightened Def Con from 1.25093e-06 +to 1.25093e-06
Heightened Def Con from 1.25093e-06 to 1.25118e-06
Heightened Def Con from 1.25118e-06 +to 1.25118e-06
Heightened Def Con from 1.25118e-06 +to 1.25118e-06
Heightened Def Con from 1.25118e-06 to 1.25118e-06
Heightened Def Con from 1.25118e-06 ++to 1.25118e-06
Heightened Def Con from 1.25118e-06 +to 1.25118e-06
Heightened Def Con from 1.25118e-06 ++to 1.2512e-06
Heightened Def Con from 1.2512e-06 +to 1.25132e-06
Heightened Def Con from 1.25132e-06 to 1.25132e-06
Heightened Def Con from 1.25132e-06 to 1.25232e-06
Heightened Def Con from 1.25232e-06 to 1.25332e-06
Heightened Def Con from 1.25332e-06 to 1.25432e-06
Heightened Def Con from 1.25432e-06 +to 1.25632e-06
Heightened Def Con from 1.25634e-06 +to 1.25634e-06
Heightened Def Con from 1.25634e-06 to 1.25634e-06
Heightened Def Con from 1.25634e-06 to 1.25634e-06
Heightened Def Con from 1.25634e-06 to 1.25634e-06
Heightened Def Con from 1.25634e-06 +to 1.25735e-06
Heightened Def Con from 1.25735e-06 to 1.25735e-06
Heightened Def Con from 1.25735e-06 +to 1.25747e-06
Heightened Def Con from 1.25747e-06 to 1.25749e-06
Heightened Def Con from 1.25749e-06 to 1.25749e-06
Heightened Def Con from 1.25749e-06 to 1.25749e-06
Heightened Def Con from 1.25749e-06 +to 1.25774e-06
Heightened Def Con from 1.25774e-06 ++to 1.25774e-06
Heightened Def Con from 1.25774e-06 to 1.25774e-06
Heightened Def Con from 1.25774e-06 to 1.25776e-06
Heightened Def Con from 1.25776e-06 +to 1.25788e-06
Heightened Def Con from 1.25788e-06 +++to 1.25788e-06
Heightened Def Con from 1.25788e-06 to 1.25788e-06
Heightened Def Con from 1.25788e-06 +to 1.25888e-06
Heightened Def Con from 1.25888e-06 to 1.25888e-06
Heightened Def Con from 1.25889e-06 to 1.25889e-06
Heightened Def Con from 1.25889e-06 to 1.25891e-06
Heightened Def Con from 1.25891e-06 to 1.25891e-06
Heightened Def Con from 1.25891e-06 to 1.25891e-06
Heightened Def Con from 1.25891e-06 to 1.25891e-06
Heightened Def Con from 1.25891e-06 to 1.25891e-06
Heightened Def Con from 1.25891e-06 to 1.25891e-06
Heightened Def Con from 1.25891e-06 +to 1.25991e-06
Heightened Def Con from 1.25991e-06 +++to 1.25991e-06
Heightened Def Con from 1.25991e-06 to 1.25991e-06
Heightened Def Con from 1.25991e-06 ++to 1.25993e-06
Heightened Def Con from 1.25993e-06 to 1.25993e-06
Heightened Def Con from 1.25993e-06 to 1.25993e-06
Heightened Def Con from 1.25993e-06 to 1.25993e-06
Heightened Def Con from 1.25993e-06 ++to 1.26093e-06
Heightened Def Con from 1.26093e-06 ++++to 1.26105e-06
Heightened Def Con from 1.26105e-06 to 1.26105e-06
Heightened Def Con from 1.26105e-06 +to 1.26118e-06
Heightened Def Con from 1.26118e-06 +to 1.26118e-06
Heightened Def Con from 1.26118e-06 +to 1.26118e-06
Heightened Def Con from 1.26118e-06 +to 1.26218e-06
Heightened Def Con from 1.26221e-06 +to 1.26221e-06
Heightened Def Con from 1.26221e-06 +to 1.26221e-06
Heightened Def Con from 1.26221e-06 to 1.26333e-06
Heightened Def Con from 1.26333e-06 to 1.26337e-06
Heightened Def Con from 1.26337e-06 to 1.26349e-06
Heightened Def Con from 1.26349e-06 to 1.26349e-06
Heightened Def Con from 1.26349e-06 to 1.26349e-06
Heightened Def Con from 1.26349e-06 to 1.26349e-06
Heightened Def Con from 1.26349e-06 to 1.2635e-06
Heightened Def Con from 1.2635e-06 +to 1.26351e-06
Heightened Def Con from 1.26351e-06 to 1.26351e-06
Heightened Def Con from 1.26351e-06 to 1.26451e-06
Heightened Def Con from 1.26451e-06 +to 1.26451e-06
Heightened Def Con from 1.26451e-06 to 1.26451e-06
Heightened Def Con from 1.26451e-06 to 1.26455e-06
Heightened Def Con from 1.26455e-06 to 1.26455e-06
Heightened Def Con from 1.26455e-06 to 1.26455e-06
Heightened Def Con from 1.26455e-06 to 1.26455e-06
Heightened Def Con from 1.26455e-06 +to 1.26555e-06
Heightened Def Con from 1.26555e-06 to 1.26555e-06
Heightened Def Con from 1.26555e-06 +to 1.26555e-06
Heightened Def Con from 1.26556e-06 to 1.26559e-06
Heightened Def Con from 1.26559e-06 to 1.26559e-06
Heightened Def Con from 1.26559e-06 +to 1.2656e-06
Heightened Def Con from 1.2656e-06 to 1.26572e-06
Heightened Def Con from 1.26572e-06 to 1.26572e-06
Heightened Def Con from 1.26572e-06 to 1.26572e-06
Heightened Def Con from 1.26572e-06 to 1.26572e-06
Heightened Def Con from 1.26572e-06 to 1.26672e-06
Heightened Def Con from 1.26672e-06 to 1.26672e-06
Heightened Def Con from 1.26672e-06 to 1.26672e-06
Heightened Def Con from 1.26672e-06 to 1.26672e-06
Heightened Def Con from 1.26672e-06 ++++to 1.26672e-06
Heightened Def Con from 1.26672e-06 to 1.26672e-06
Heightened Def Con from 1.26672e-06 to 1.26672e-06
Heightened Def Con from 1.26672e-06 to 1.26672e-06
Heightened Def Con from 1.26672e-06 to 1.26672e-06
Heightened Def Con from 1.26672e-06 +to 1.26673e-06
Heightened Def Con from 1.26673e-06 +to 1.26673e-06
Heightened Def Con from 1.26673e-06 to 1.26686e-06
Heightened Def Con from 1.26686e-06 +to 1.26698e-06
Heightened Def Con from 1.26698e-06 to 1.267e-06
Heightened Def Con from 1.267e-06 to 1.267e-06
Heightened Def Con from 1.267e-06 to 1.267e-06
Heightened Def Con from 1.267e-06 to 1.267e-06
Heightened Def Con from 1.267e-06 to 1.267e-06
Heightened Def Con from 1.267e-06 to 1.26714e-06
Heightened Def Con from 1.26714e-06 to 1.26814e-06
Heightened Def Con from 1.26814e-06 ++to 1.26814e-06
Heightened Def Con from 1.26814e-06 to 1.26814e-06
Heightened Def Con from 1.26814e-06 +to 1.26815e-06
Heightened Def Con from 1.26815e-06 to 1.26815e-06
Heightened Def Con from 1.26815e-06 +to 1.26815e-06
Heightened Def Con from 1.26815e-06 +to 1.26815e-06
Heightened Def Con from 1.26815e-06 to 1.27015e-06
Heightened Def Con from 1.27015e-06 to 1.27016e-06
Heightened Def Con from 1.27016e-06 to 1.27016e-06
Heightened Def Con from 1.27016e-06 to 1.27016e-06
Heightened Def Con from 1.27016e-06 +to 1.27016e-06
Heightened Def Con from 1.27016e-06 +++to 1.27128e-06
Heightened Def Con from 1.27128e-06 to 1.27228e-06
Heightened Def Con from 1.27228e-06 to 1.27228e-06
Heightened Def Con from 1.27228e-06 to 1.27228e-06
Heightened Def Con from 1.27228e-06 +++++to 1.27228e-06
Heightened Def Con from 1.27228e-06 +to 1.27228e-06
Heightened Def Con from 1.27228e-06 to 1.27228e-06
Heightened Def Con from 1.27228e-06 +++to 1.27228e-06
Heightened Def Con from 1.27228e-06 +++to 1.27228e-06
Heightened Def Con from 1.27228e-06 ++to 1.27328e-06
Heightened Def Con from 1.27328e-06 +to 1.2733e-06
Heightened Def Con from 1.2733e-06 +++to 1.27331e-06
Heightened Def Con from 1.27331e-06 to 1.27332e-06
Heightened Def Con from 1.27332e-06 +to 1.27344e-06
Heightened Def Con from 1.27344e-06 ++++to 1.27344e-06
Heightened Def Con from 1.27344e-06 +to 1.27344e-06
Heightened Def Con from 1.27344e-06 +++to 1.27357e-06
Heightened Def Con from 1.27357e-06 +++to 1.27357e-06
Heightened Def Con from 1.27357e-06 to 1.27357e-06
Heightened Def Con from 1.27357e-06 +++to 1.27357e-06
Heightened Def Con from 1.27357e-06 +to 1.27357e-06
Heightened Def Con from 1.27357e-06 ++to 1.27357e-06
Heightened Def Con from 1.27357e-06 +to 1.27357e-06
Heightened Def Con from 1.27357e-06 +++to 1.27382e-06
Heightened Def Con from 1.27382e-06 +to 1.27394e-06
Heightened Def Con from 1.27394e-06 +++++to 1.27394e-06
Heightened Def Con from 1.27394e-06 +to 1.27394e-06
Heightened Def Con from 1.27394e-06 ++++++++++++++++++++++++to 1.27394e-06
Heightened Def Con from 1.27394e-06 ++++to 1.27394e-06
Heightened Def Con from 1.27394e-06 +++++++++++++++++++++++++to 1.27507e-06
Heightened Def Con from 1.27507e-06 +to 1.27509e-06
Heightened Def Con from 1.27512e-06 ++to 1.27512e-06
Heightened Def Con from 1.27512e-06 +to 1.27512e-06
Heightened Def Con from 1.27512e-06 to 1.27612e-06
Heightened Def Con from 1.27612e-06 to 1.27612e-06
Heightened Def Con from 1.27613e-06 to 1.27613e-06
Heightened Def Con from 1.27613e-06 +to 1.27613e-06
Heightened Def Con from 1.27613e-06 to 1.27613e-06
Heightened Def Con from 1.27613e-06 +to 1.27613e-06
Heightened Def Con from 1.27613e-06 ++to 1.27613e-06
Heightened Def Con from 1.27613e-06 to 1.27627e-06
Heightened Def Con from 1.27627e-06 to 1.27627e-06
Heightened Def Con from 1.27627e-06 ++++to 1.27627e-06
Heightened Def Con from 1.27627e-06 ++++++++to 1.2764e-06
Heightened Def Con from 1.2764e-06 to 1.2764e-06
Heightened Def Con from 1.2764e-06 +to 1.27652e-06
Heightened Def Con from 1.27652e-06 to 1.27652e-06
Heightened Def Con from 1.27652e-06 +to 1.27652e-06
Heightened Def Con from 1.27652e-06 to 1.27652e-06
Heightened Def Con from 1.27652e-06 +to 1.27652e-06
Heightened Def Con from 1.27652e-06 to 1.27654e-06
Heightened Def Con from 1.27654e-06 +to 1.27654e-06
Heightened Def Con from 1.27654e-06 +to 1.27654e-06
Heightened Def Con from 1.27654e-06 +to 1.27654e-06
Heightened Def Con from 1.27654e-06 to 1.27654e-06
Heightened Def Con from 1.27654e-06 +to 1.27654e-06
Heightened Def Con from 1.27654e-06 ++++to 1.27667e-06
Heightened Def Con from 1.2767e-06 ++to 1.27671e-06
Heightened Def Con from 1.27671e-06 +to 1.27671e-06
Heightened Def Con from 1.27671e-06 +to 1.27673e-06
Heightened Def Con from 1.27673e-06 +++to 1.27673e-06
Heightened Def Con from 1.27673e-06 +to 1.27673e-06
Heightened Def Con from 1.27673e-06 +to 1.27675e-06
Heightened Def Con from 1.27675e-06 +++++++++++++to 1.27775e-06
Heightened Def Con from 1.27775e-06 +++to 1.27776e-06
Heightened Def Con from 1.27776e-06 to 1.27776e-06
Heightened Def Con from 1.27776e-06 to 1.27776e-06
Heightened Def Con from 1.27776e-06 ++++++++to 1.27776e-06
Heightened Def Con from 1.27776e-06 to 1.27776e-06
Heightened Def Con from 1.27776e-06 +to 1.27789e-06
Heightened Def Con from 1.27789e-06 +to 1.27789e-06
Heightened Def Con from 1.27789e-06 +to 1.2779e-06
Heightened Def Con from 1.2779e-06 +++to 1.2779e-06
Heightened Def Con from 1.2779e-06 to 1.2779e-06
Heightened Def Con from 1.2779e-06 +++++to 1.2789e-06
Heightened Def Con from 1.2789e-06 to 1.27892e-06
Heightened Def Con from 1.27892e-06 to 1.28005e-06
Heightened Def Con from 1.28006e-06 ++to 1.28106e-06
Heightened Def Con from 1.28106e-06 to 1.28106e-06
Heightened Def Con from 1.28106e-06 +to 1.28206e-06
Heightened Def Con from 1.28206e-06 ++to 1.28218e-06
Heightened Def Con from 1.28219e-06 to 1.28233e-06
Heightened Def Con from 1.28233e-06 +to 1.28233e-06
Heightened Def Con from 1.28233e-06 ++to 1.28333e-06
Heightened Def Con from 1.28333e-06 to 1.28345e-06
Heightened Def Con from 1.28345e-06 to 1.28345e-06
Heightened Def Con from 1.28345e-06 to 1.28345e-06
Heightened Def Con from 1.28345e-06 +to 1.28445e-06
Heightened Def Con from 1.28445e-06 to 1.28445e-06
Heightened Def Con from 1.28445e-06 to 1.28445e-06
Heightened Def Con from 1.28445e-06 to 1.28445e-06
Heightened Def Con from 1.28445e-06 to 1.28445e-06
Heightened Def Con from 1.28445e-06 to 1.28445e-06
Heightened Def Con from 1.28445e-06 to 1.28445e-06
Heightened Def Con from 1.28445e-06 +to 1.28445e-06
Heightened Def Con from 1.28445e-06 to 1.28445e-06
Heightened Def Con from 1.28445e-06 +++to 1.28445e-06
Heightened Def Con from 1.28445e-06 ++to 1.28545e-06
Heightened Def Con from 1.28545e-06 to 1.28545e-06
Heightened Def Con from 1.28545e-06 to 1.28545e-06
Heightened Def Con from 1.28545e-06 to 1.28545e-06
Heightened Def Con from 1.28545e-06 to 1.28546e-06
Heightened Def Con from 1.28546e-06 to 1.28558e-06
Heightened Def Con from 1.28558e-06 ++to 1.28558e-06
Heightened Def Con from 1.28558e-06 to 1.28558e-06
Heightened Def Con from 1.28558e-06 +to 1.28658e-06
Heightened Def Con from 1.28658e-06 to 1.28671e-06
Heightened Def Con from 1.28671e-06 to 1.28671e-06
Heightened Def Con from 1.28671e-06 +to 1.28671e-06
Heightened Def Con from 1.28671e-06 to 1.28671e-06
Heightened Def Con from 1.28671e-06 to 1.28671e-06
Heightened Def Con from 1.28671e-06 +to 1.28684e-06
Heightened Def Con from 1.28709e-06 to 1.28709e-06
Heightened Def Con from 1.28709e-06 to 1.28709e-06
Heightened Def Con from 1.28709e-06 to 1.28709e-06
Heightened Def Con from 1.28709e-06 to 1.28709e-06
Heightened Def Con from 1.28709e-06 +to 1.28709e-06
Heightened Def Con from 1.28709e-06 to 1.28709e-06
Heightened Def Con from 1.28709e-06 to 1.28709e-06
Heightened Def Con from 1.28709e-06 to 1.28734e-06
Heightened Def Con from 1.28735e-06 to 1.28835e-06
Heightened Def Con from 1.28835e-06 to 1.28835e-06
Heightened Def Con from 1.28835e-06 to 1.28835e-06
Heightened Def Con from 1.28835e-06 to 1.28835e-06
Heightened Def Con from 1.28835e-06 +to 1.28835e-06
Heightened Def Con from 1.28835e-06 to 1.28835e-06
Heightened Def Con from 1.28835e-06 to 1.28836e-06
Heightened Def Con from 1.28836e-06 +to 1.28836e-06
Heightened Def Con from 1.28836e-06 to 1.28936e-06
Heightened Def Con from 1.28936e-06 to 1.29048e-06
Heightened Def Con from 1.29048e-06 +to 1.29048e-06
Heightened Def Con from 1.29048e-06 ++to 1.29048e-06
Heightened Def Con from 1.29048e-06 to 1.29048e-06
Heightened Def Con from 1.29048e-06 +++to 1.2905e-06
Heightened Def Con from 1.2905e-06 to 1.2905e-06
Heightened Def Con from 1.2905e-06 to 1.2905e-06
Heightened Def Con from 1.2905e-06 to 1.29051e-06
Heightened Def Con from 1.29051e-06 +to 1.29051e-06
Heightened Def Con from 1.29051e-06 to 1.29051e-06
Heightened Def Con from 1.29051e-06 to 1.29051e-06
Heightened Def Con from 1.29051e-06 ++++to 1.29051e-06
Heightened Def Con from 1.29051e-06 to 1.29051e-06
Heightened Def Con from 1.29051e-06 to 1.29052e-06
Heightened Def Con from 1.29052e-06 to 1.29052e-06
Heightened Def Con from 1.29052e-06 +to 1.29052e-06
Heightened Def Con from 1.29052e-06 to 1.29052e-06
Heightened Def Con from 1.29052e-06 to 1.29052e-06
Heightened Def Con from 1.29052e-06 to 1.29052e-06
Heightened Def Con from 1.29052e-06 to 1.29052e-06
Heightened Def Con from 1.29052e-06 to 1.29052e-06
Heightened Def Con from 1.29052e-06 +to 1.29064e-06
Heightened Def Con from 1.29089e-06 +to 1.2919e-06
Heightened Def Con from 1.2919e-06 +to 1.2919e-06
Heightened Def Con from 1.2919e-06 to 1.2919e-06
Heightened Def Con from 1.2919e-06 +++to 1.29202e-06
Heightened Def Con from 1.29202e-06 to 1.29202e-06
Heightened Def Con from 1.29202e-06 +to 1.29202e-06
Heightened Def Con from 1.29202e-06 +to 1.29202e-06
Heightened Def Con from 1.29202e-06 to 1.29203e-06
Heightened Def Con from 1.29203e-06 ++to 1.29203e-06
Heightened Def Con from 1.29203e-06 to 1.29203e-06
Heightened Def Con from 1.29203e-06 to 1.29203e-06
Heightened Def Con from 1.29203e-06 to 1.29203e-06
Heightened Def Con from 1.29203e-06 to 1.29203e-06
Heightened Def Con from 1.29203e-06 to 1.29203e-06
Heightened Def Con from 1.29203e-06 to 1.29215e-06
Heightened Def Con from 1.29215e-06 +to 1.29217e-06
Heightened Def Con from 1.29217e-06 ++to 1.29217e-06
Heightened Def Con from 1.29217e-06 to 1.29417e-06
Heightened Def Con from 1.29442e-06 to 1.29543e-06
Heightened Def Con from 1.29543e-06 to 1.29556e-06
Heightened Def Con from 1.29556e-06 to 1.29556e-06
Heightened Def Con from 1.29556e-06 to 1.29556e-06
Heightened Def Con from 1.29556e-06 to 1.29556e-06
Heightened Def Con from 1.29556e-06 to 1.29556e-06
Heightened Def Con from 1.29556e-06 to 1.29569e-06
Heightened Def Con from 1.29569e-06 to 1.29569e-06
Heightened Def Con from 1.29569e-06 to 1.29669e-06
Heightened Def Con from 1.29669e-06 to 1.29681e-06
Heightened Def Con from 1.29682e-06 +to 1.29682e-06
Heightened Def Con from 1.29682e-06 to 1.29682e-06
Heightened Def Con from 1.29682e-06 to 1.29682e-06
Heightened Def Con from 1.29682e-06 to 1.29682e-06
Heightened Def Con from 1.29682e-06 to 1.29683e-06
Heightened Def Con from 1.29683e-06 +to 1.29683e-06
Heightened Def Con from 1.29683e-06 +to 1.29683e-06
Heightened Def Con from 1.29683e-06 +to 1.29697e-06
Heightened Def Con from 1.29697e-06 to 1.29897e-06
Heightened Def Con from 1.299e-06 to 1.29912e-06
Heightened Def Con from 1.29912e-06 +to 1.30012e-06
Heightened Def Con from 1.30066e-06 to 1.3008e-06
Heightened Def Con from 1.3008e-06 +to 1.3028e-06
Heightened Def Con from 1.3048e-06 to 1.3048e-06
Heightened Def Con from 1.3048e-06 +++++++++++++++++++++++++++to 1.3048e-06
Heightened Def Con from 1.3048e-06 +to 1.3048e-06
Heightened Def Con from 1.3048e-06 +++++++++to 1.3048e-06
Heightened Def Con from 1.3048e-06 to 1.3058e-06
Heightened Def Con from 1.3058e-06 to 1.30605e-06
Heightened Def Con from 1.30605e-06 +to 1.30605e-06
Heightened Def Con from 1.30605e-06 +to 1.30605e-06
Heightened Def Con from 1.30605e-06 +to 1.30705e-06
Heightened Def Con from 1.30705e-06 +++to 1.30705e-06
Heightened Def Con from 1.30705e-06 to 1.30805e-06
Heightened Def Con from 1.30805e-06 ++++++to 1.30818e-06
Heightened Def Con from 1.30818e-06 ++++++++to 1.30818e-06
Heightened Def Con from 1.30818e-06 +++++to 1.31018e-06
Heightened Def Con from 1.31218e-06 +to 1.31218e-06
Heightened Def Con from 1.31218e-06 to 1.3133e-06
Heightened Def Con from 1.3133e-06 to 1.3143e-06
Heightened Def Con from 1.31449e-06 +to 1.31462e-06
Heightened Def Con from 1.31462e-06 to 1.31462e-06
Heightened Def Con from 1.31462e-06 +++to 1.31474e-06
Heightened Def Con from 1.31474e-06 +to 1.31474e-06
Heightened Def Con from 1.31474e-06 +to 1.31574e-06
Heightened Def Con from 1.31574e-06 to 1.31574e-06
Heightened Def Con from 1.31574e-06 to 1.31574e-06
Heightened Def Con from 1.31574e-06 to 1.31599e-06
Heightened Def Con from 1.31599e-06 +to 1.31612e-06
Heightened Def Con from 1.31612e-06 +++to 1.31612e-06
Heightened Def Con from 1.31612e-06 +to 1.31612e-06
Heightened Def Con from 1.31612e-06 ++to 1.31612e-06
Heightened Def Con from 1.31612e-06 +to 1.31614e-06
Heightened Def Con from 1.31614e-06 +++to 1.31615e-06
Heightened Def Con from 1.31618e-06 +to 1.31718e-06
Heightened Def Con from 1.31718e-06 to 1.31731e-06
Heightened Def Con from 1.31731e-06 to 1.31731e-06
Heightened Def Con from 1.31731e-06 ++to 1.31743e-06
Heightened Def Con from 1.31743e-06 +to 1.31743e-06
Heightened Def Con from 1.31744e-06 to 1.31756e-06
Heightened Def Con from 1.31756e-06 +to 1.31856e-06
Heightened Def Con from 1.31856e-06 to 1.31858e-06
Heightened Def Con from 1.31858e-06 to 1.31858e-06
Heightened Def Con from 1.31858e-06 to 1.3186e-06
Heightened Def Con from 1.3186e-06 ++to 1.31872e-06
Heightened Def Con from 1.31873e-06 to 1.31873e-06
Heightened Def Con from 1.31873e-06 +to 1.31873e-06
Heightened Def Con from 1.31873e-06 to 1.31873e-06
Heightened Def Con from 1.31873e-06 to 1.31873e-06
Heightened Def Con from 1.31873e-06 to 1.31873e-06
Heightened Def Con from 1.31873e-06 to 1.31873e-06
Heightened Def Con from 1.31873e-06 to 1.31885e-06
Heightened Def Con from 1.31885e-06 to 1.31885e-06
Heightened Def Con from 1.31885e-06 to 1.31885e-06
Heightened Def Con from 1.31885e-06 +to 1.31898e-06
Heightened Def Con from 1.31898e-06 to 1.31898e-06
Heightened Def Con from 1.31898e-06 +to 1.31898e-06
Heightened Def Con from 1.31898e-06 to 1.31898e-06
Heightened Def Con from 1.31898e-06 to 1.31998e-06
Heightened Def Con from 1.31998e-06 to 1.32098e-06
Heightened Def Con from 1.32098e-06 +to 1.321e-06
Heightened Def Con from 1.321e-06 to 1.321e-06
Heightened Def Con from 1.321e-06 to 1.322e-06
Heightened Def Con from 1.322e-06 to 1.322e-06
Heightened Def Con from 1.322e-06 +to 1.322e-06
Heightened Def Con from 1.322e-06 to 1.322e-06
Heightened Def Con from 1.322e-06 to 1.322e-06
Heightened Def Con from 1.322e-06 to 1.323e-06
Heightened Def Con from 1.323e-06 to 1.323e-06
Heightened Def Con from 1.323e-06 to 1.324e-06
Heightened Def Con from 1.324e-06 to 1.32425e-06
Heightened Def Con from 1.32425e-06 to 1.32425e-06
Heightened Def Con from 1.32425e-06 to 1.32428e-06
Heightened Def Con from 1.32428e-06 to 1.32528e-06
Heightened Def Con from 1.32528e-06 to 1.32528e-06
Heightened Def Con from 1.32528e-06 +to 1.32628e-06
Heightened Def Con from 1.32628e-06 to 1.32628e-06
Heightened Def Con from 1.32628e-06 to 1.32643e-06
Heightened Def Con from 1.32643e-06 to 1.32643e-06
Heightened Def Con from 1.32643e-06 to 1.32743e-06
Heightened Def Con from 1.32743e-06 to 1.32743e-06
Heightened Def Con from 1.32743e-06 +to 1.32743e-06
Heightened Def Con from 1.32743e-06 to 1.32744e-06
Heightened Def Con from 1.32744e-06 to 1.32744e-06
Heightened Def Con from 1.32744e-06 to 1.32746e-06
Heightened Def Con from 1.32746e-06 +to 1.32747e-06
Heightened Def Con from 1.32747e-06 to 1.32849e-06
Heightened Def Con from 1.32849e-06 +to 1.3285e-06
Heightened Def Con from 1.3285e-06 ++to 1.32954e-06
Heightened Def Con from 1.32968e-06 to 1.32968e-06
Heightened Def Con from 1.32968e-06 to 1.32968e-06
Heightened Def Con from 1.32968e-06 to 1.32968e-06
Heightened Def Con from 1.32968e-06 to 1.32968e-06
Heightened Def Con from 1.32968e-06 to 1.32968e-06
Heightened Def Con from 1.32968e-06 to 1.32968e-06
Heightened Def Con from 1.32968e-06 to 1.32968e-06
Heightened Def Con from 1.32968e-06 ++to 1.32968e-06
Heightened Def Con from 1.32968e-06 +to 1.32968e-06
Heightened Def Con from 1.32968e-06 +to 1.32981e-06
Heightened Def Con from 1.32982e-06 to 1.32982e-06
Heightened Def Con from 1.32982e-06 to 1.32982e-06
Heightened Def Con from 1.32982e-06 to 1.33082e-06
Heightened Def Con from 1.33082e-06 +to 1.33094e-06
Heightened Def Con from 1.33094e-06 to 1.33107e-06
Heightened Def Con from 1.33107e-06 +to 1.33107e-06
Heightened Def Con from 1.33107e-06 to 1.33108e-06
Heightened Def Con from 1.33108e-06 to 1.33121e-06
Heightened Def Con from 1.33121e-06 to 1.33121e-06
Heightened Def Con from 1.33121e-06 to 1.33133e-06
Heightened Def Con from 1.33133e-06 to 1.33133e-06
Heightened Def Con from 1.33133e-06 to 1.33133e-06
Heightened Def Con from 1.33133e-06 +to 1.33135e-06
Heightened Def Con from 1.33135e-06 to 1.33135e-06
Heightened Def Con from 1.33135e-06 to 1.33135e-06
Heightened Def Con from 1.33135e-06 +to 1.33135e-06
Heightened Def Con from 1.33135e-06 to 1.33135e-06
Heightened Def Con from 1.33135e-06 to 1.33135e-06
Heightened Def Con from 1.33135e-06 to 1.33135e-06
Heightened Def Con from 1.33135e-06 to 1.33135e-06
Heightened Def Con from 1.33135e-06 +to 1.33248e-06
Heightened Def Con from 1.33248e-06 ++to 1.33248e-06
Heightened Def Con from 1.33248e-06 +++to 1.33248e-06
Heightened Def Con from 1.33248e-06 to 1.33248e-06
Heightened Def Con from 1.33248e-06 +to 1.3325e-06
Heightened Def Con from 1.3325e-06 ++to 1.3325e-06
Heightened Def Con from 1.3325e-06 to 1.3325e-06
Heightened Def Con from 1.3325e-06 to 1.33262e-06
Heightened Def Con from 1.33262e-06 to 1.33262e-06
Heightened Def Con from 1.33262e-06 +to 1.33262e-06
Heightened Def Con from 1.33262e-06 ++to 1.33262e-06
Heightened Def Con from 1.33262e-06 to 1.33262e-06
Heightened Def Con from 1.33262e-06 to 1.33262e-06
Heightened Def Con from 1.33262e-06 to 1.33262e-06
Heightened Def Con from 1.33262e-06 to 1.33264e-06
Heightened Def Con from 1.33264e-06 to 1.33264e-06
Heightened Def Con from 1.33264e-06 to 1.33264e-06
Heightened Def Con from 1.33264e-06 to 1.33264e-06
Heightened Def Con from 1.33264e-06 +to 1.33264e-06
Heightened Def Con from 1.33264e-06 to 1.33264e-06
Heightened Def Con from 1.33264e-06 to 1.33264e-06
Heightened Def Con from 1.33264e-06 to 1.33264e-06
Heightened Def Con from 1.33264e-06 to 1.33264e-06
Heightened Def Con from 1.33264e-06 +to 1.33277e-06
Heightened Def Con from 1.33277e-06 to 1.33278e-06
Heightened Def Con from 1.33278e-06 ++to 1.33278e-06
Heightened Def Con from 1.33278e-06 +++++to 1.33278e-06
Heightened Def Con from 1.33278e-06 +to 1.33278e-06
Heightened Def Con from 1.33278e-06 +to 1.3328e-06
Heightened Def Con from 1.3328e-06 +++to 1.3328e-06
Heightened Def Con from 1.3328e-06 +to 1.3328e-06
Heightened Def Con from 1.3328e-06 to 1.3328e-06
Heightened Def Con from 1.3328e-06 ++to 1.3328e-06
Heightened Def Con from 1.3328e-06 to 1.33293e-06
Heightened Def Con from 1.33293e-06 to 1.33293e-06
Heightened Def Con from 1.33293e-06 to 1.33293e-06
Heightened Def Con from 1.33293e-06 +to 1.33293e-06
Heightened Def Con from 1.33293e-06 +++to 1.33294e-06
Heightened Def Con from 1.33294e-06 ++++++++++++++to 1.33294e-06
Heightened Def Con from 1.33294e-06 +++to 1.33294e-06
Heightened Def Con from 1.33294e-06 +to 1.33494e-06
Heightened Def Con from 1.33494e-06 to 1.33494e-06
Heightened Def Con from 1.33494e-06 to 1.33494e-06
Heightened Def Con from 1.33494e-06 to 1.33494e-06
Heightened Def Con from 1.33494e-06 to 1.33496e-06
Heightened Def Con from 1.33496e-06 +to 1.33596e-06
Heightened Def Con from 1.33596e-06 to 1.33596e-06
Heightened Def Con from 1.33597e-06 to 1.33597e-06
Heightened Def Con from 1.33597e-06 to 1.33609e-06
Heightened Def Con from 1.33609e-06 to 1.33709e-06
Heightened Def Con from 1.33709e-06 to 1.33709e-06
Heightened Def Con from 1.33709e-06 to 1.33709e-06
Heightened Def Con from 1.33709e-06 ++to 1.33711e-06
Heightened Def Con from 1.33711e-06 to 1.33711e-06
Heightened Def Con from 1.33711e-06 to 1.33711e-06
Heightened Def Con from 1.33711e-06 to 1.33714e-06
Heightened Def Con from 1.33717e-06 to 1.33717e-06
Heightened Def Con from 1.33717e-06 to 1.33717e-06
Heightened Def Con from 1.33717e-06 to 1.33731e-06
Heightened Def Con from 1.33731e-06 to 1.33733e-06
Heightened Def Con from 1.33733e-06 to 1.33733e-06
Heightened Def Con from 1.33733e-06 to 1.33737e-06
Heightened Def Con from 1.33737e-06 to 1.33737e-06
Heightened Def Con from 1.33737e-06 to 1.33738e-06
Heightened Def Con from 1.33738e-06 to 1.33738e-06
Heightened Def Con from 1.33738e-06 to 1.33739e-06
Heightened Def Con from 1.33739e-06 to 1.33751e-06
Heightened Def Con from 1.33751e-06 to 1.33751e-06
Heightened Def Con from 1.33751e-06 to 1.33751e-06
Heightened Def Con from 1.33751e-06 to 1.33751e-06
Heightened Def Con from 1.33751e-06 to 1.33751e-06
Heightened Def Con from 1.33751e-06 to 1.33751e-06
Heightened Def Con from 1.33752e-06 to 1.33752e-06
Heightened Def Con from 1.33752e-06 to 1.33764e-06
Heightened Def Con from 1.33764e-06 to 1.33764e-06
Heightened Def Con from 1.33764e-06 to 1.33766e-06
Heightened Def Con from 1.33766e-06 to 1.33778e-06
Heightened Def Con from 1.33778e-06 to 1.3378e-06
Heightened Def Con from 1.3378e-06 +to 1.33781e-06
Heightened Def Con from 1.33781e-06 to 1.33781e-06
Heightened Def Con from 1.33781e-06 to 1.33781e-06
Heightened Def Con from 1.33781e-06 to 1.33782e-06
Heightened Def Con from 1.33782e-06 +to 1.33782e-06
Heightened Def Con from 1.33782e-06 to 1.33782e-06
Heightened Def Con from 1.33782e-06 to 1.33782e-06
Heightened Def Con from 1.33782e-06 +to 1.33782e-06
Heightened Def Con from 1.33782e-06 to 1.33782e-06
Heightened Def Con from 1.33782e-06 ++to 1.33795e-06
Heightened Def Con from 1.33795e-06 to 1.33795e-06
Heightened Def Con from 1.33795e-06 +to 1.33795e-06
Heightened Def Con from 1.33795e-06 to 1.33795e-06
Heightened Def Con from 1.33795e-06 ++to 1.33808e-06
Heightened Def Con from 1.33808e-06 to 1.33908e-06
Heightened Def Con from 1.33908e-06 to 1.33908e-06
Heightened Def Con from 1.33908e-06 +to 1.3392e-06
Heightened Def Con from 1.3392e-06 to 1.3392e-06
Heightened Def Con from 1.3392e-06 to 1.33933e-06
Heightened Def Con from 1.33933e-06 to 1.34045e-06
Heightened Def Con from 1.34045e-06 to 1.34045e-06
Heightened Def Con from 1.34045e-06 ++to 1.34045e-06
Heightened Def Con from 1.34045e-06 +to 1.34058e-06
Heightened Def Con from 1.34058e-06 to 1.34158e-06
Heightened Def Con from 1.34158e-06 to 1.34258e-06
Heightened Def Con from 1.34858e-06 to 1.34958e-06
Heightened Def Con from 1.34958e-06 to 1.34958e-06
Heightened Def Con from 1.34958e-06 to 1.3496e-06
Heightened Def Con from 1.3496e-06 to 1.3496e-06
Heightened Def Con from 1.3496e-06 to 1.3496e-06
Heightened Def Con from 1.3496e-06 to 1.34985e-06
Heightened Def Con from 1.3501e-06 to 1.3501e-06
Heightened Def Con from 1.35011e-06 to 1.35011e-06
Heightened Def Con from 1.35011e-06 +to 1.35011e-06
Heightened Def Con from 1.35011e-06 to 1.35112e-06
Heightened Def Con from 1.35113e-06 to 1.35113e-06
Heightened Def Con from 1.35113e-06 ++to 1.35113e-06
Heightened Def Con from 1.35113e-06 +to 1.35113e-06
Heightened Def Con from 1.35113e-06 +to 1.35113e-06
Heightened Def Con from 1.35113e-06 to 1.35126e-06
Heightened Def Con from 1.35126e-06 to 1.35226e-06
Heightened Def Con from 1.35226e-06 to 1.35226e-06
Heightened Def Con from 1.35226e-06 to 1.35229e-06
Heightened Def Con from 1.35229e-06 to 1.35229e-06
Heightened Def Con from 1.35229e-06 +to 1.35329e-06
Heightened Def Con from 1.35329e-06 to 1.35329e-06
Heightened Def Con from 1.35329e-06 to 1.35329e-06
Heightened Def Con from 1.35329e-06 +to 1.35429e-06
Heightened Def Con from 1.35429e-06 to 1.35442e-06
Heightened Def Con from 1.35443e-06 to 1.35443e-06
Heightened Def Con from 1.35443e-06 to 1.35443e-06
Heightened Def Con from 1.35443e-06 to 1.35445e-06
Heightened Def Con from 1.35445e-06 to 1.35445e-06
Heightened Def Con from 1.35445e-06 to 1.35445e-06
Heightened Def Con from 1.35445e-06 to 1.35448e-06
Heightened Def Con from 1.35452e-06 to 1.35452e-06
Heightened Def Con from 1.35452e-06 +++to 1.35565e-06
Heightened Def Con from 1.35783e-06 +to 1.35783e-06
Heightened Def Con from 1.35783e-06 ++++to 1.35784e-06
Heightened Def Con from 1.35784e-06 +++++to 1.35796e-06
Heightened Def Con from 1.35796e-06 to 1.35809e-06
Heightened Def Con from 1.35812e-06 to 1.35827e-06
Heightened Def Con from 1.35827e-06 to 1.35839e-06
Heightened Def Con from 1.3584e-06 to 1.3584e-06
Heightened Def Con from 1.3584e-06 ++to 1.3594e-06
Heightened Def Con from 1.3594e-06 to 1.3594e-06
Heightened Def Con from 1.3594e-06 to 1.3594e-06
Heightened Def Con from 1.3594e-06 to 1.3594e-06
Heightened Def Con from 1.3594e-06 +to 1.35952e-06
Heightened Def Con from 1.35952e-06 ++to 1.35952e-06
Heightened Def Con from 1.35952e-06 to 1.36065e-06
Heightened Def Con from 1.36065e-06 to 1.36178e-06
Heightened Def Con from 1.36178e-06 to 1.36178e-06
Heightened Def Con from 1.36178e-06 +++++to 1.36278e-06
Heightened Def Con from 1.36278e-06 ++++to 1.36278e-06
Heightened Def Con from 1.36278e-06 +++++to 1.36278e-06
Heightened Def Con from 1.36278e-06 ++to 1.36278e-06
Heightened Def Con from 1.36278e-06 +to 1.36278e-06
Heightened Def Con from 1.36278e-06 to 1.36278e-06
Heightened Def Con from 1.36278e-06 +++++++++++++++++++to 1.36278e-06
Heightened Def Con from 1.36278e-06 +to 1.36279e-06
Heightened Def Con from 1.36279e-06 +++++to 1.36379e-06
Heightened Def Con from 1.36379e-06 to 1.36379e-06
Heightened Def Con from 1.36379e-06 to 1.36379e-06
Heightened Def Con from 1.36379e-06 to 1.36379e-06
Heightened Def Con from 1.36379e-06 to 1.36392e-06
Heightened Def Con from 1.36392e-06 to 1.36392e-06
Heightened Def Con from 1.36392e-06 ++to 1.36393e-06
Heightened Def Con from 1.36393e-06 to 1.36393e-06
Heightened Def Con from 1.36393e-06 +to 1.36395e-06
Heightened Def Con from 1.36395e-06 to 1.36395e-06
Heightened Def Con from 1.36395e-06 +to 1.36395e-06
Heightened Def Con from 1.36395e-06 to 1.36495e-06
Heightened Def Con from 1.36495e-06 to 1.36508e-06
Heightened Def Con from 1.36508e-06 to 1.36508e-06
Heightened Def Con from 1.36508e-06 +to 1.36708e-06
Heightened Def Con from 1.36708e-06 +to 1.36721e-06
Heightened Def Con from 1.36721e-06 +to 1.36821e-06
Heightened Def Con from 1.36864e-06 to 1.36864e-06
Heightened Def Con from 1.36864e-06 +to 1.36964e-06
Heightened Def Con from 1.37164e-06 +to 1.37164e-06
Heightened Def Con from 1.37164e-06 to 1.37165e-06
Heightened Def Con from 1.37165e-06 to 1.37165e-06
Heightened Def Con from 1.37165e-06 to 1.37179e-06
Heightened Def Con from 1.37179e-06 to 1.37179e-06
Heightened Def Con from 1.37179e-06 +++to 1.37179e-06
Heightened Def Con from 1.37179e-06 ++to 1.37279e-06
Heightened Def Con from 1.37279e-06 to 1.37279e-06
Heightened Def Con from 1.37279e-06 to 1.37279e-06
Heightened Def Con from 1.37279e-06 to 1.37279e-06
Heightened Def Con from 1.37279e-06 +to 1.37379e-06
Heightened Def Con from 1.37379e-06 to 1.37379e-06
Heightened Def Con from 1.37379e-06 to 1.37379e-06
Heightened Def Con from 1.37379e-06 to 1.37379e-06
Heightened Def Con from 1.37379e-06 ++to 1.37392e-06
Heightened Def Con from 1.37417e-06 to 1.37417e-06
Heightened Def Con from 1.37417e-06 to 1.37417e-06
Heightened Def Con from 1.37417e-06 to 1.37417e-06
Heightened Def Con from 1.37417e-06 to 1.37417e-06
Heightened Def Con from 1.37417e-06 +to 1.37417e-06
Heightened Def Con from 1.37417e-06 +to 1.37617e-06
Heightened Def Con from 1.37817e-06 to 1.37817e-06
Heightened Def Con from 1.37817e-06 to 1.37817e-06
Heightened Def Con from 1.37817e-06 +to 1.37917e-06
Heightened Def Con from 1.37917e-06 ++to 1.38017e-06
Heightened Def Con from 1.38017e-06 +to 1.3803e-06
Heightened Def Con from 1.3803e-06 to 1.3803e-06
Heightened Def Con from 1.3803e-06 to 1.3823e-06
Heightened Def Con from 1.3823e-06 +to 1.3823e-06
Heightened Def Con from 1.3823e-06 +to 1.38242e-06
Heightened Def Con from 1.38242e-06 to 1.38243e-06
Heightened Def Con from 1.38243e-06 to 1.38268e-06
Heightened Def Con from 1.38268e-06 ++to 1.3828e-06
Heightened Def Con from 1.3828e-06 ++to 1.3828e-06
Heightened Def Con from 1.38282e-06 to 1.38283e-06
Heightened Def Con from 1.38283e-06 +to 1.38285e-06
Heightened Def Con from 1.38285e-06 to 1.38299e-06
Heightened Def Con from 1.38299e-06 to 1.38299e-06
Heightened Def Con from 1.38299e-06 to 1.38299e-06
Heightened Def Con from 1.38299e-06 to 1.38299e-06
Heightened Def Con from 1.38299e-06 to 1.38299e-06
Heightened Def Con from 1.38299e-06 to 1.38299e-06
Heightened Def Con from 1.38299e-06 to 1.38299e-06
Heightened Def Con from 1.38299e-06 to 1.38299e-06
Heightened Def Con from 1.38299e-06 to 1.38299e-06
Heightened Def Con from 1.38299e-06 to 1.38299e-06
Heightened Def Con from 1.38299e-06 +to 1.38299e-06
Heightened Def Con from 1.38299e-06 to 1.38299e-06
Heightened Def Con from 1.38299e-06 to 1.38302e-06
Heightened Def Con from 1.38306e-06 to 1.38308e-06
Heightened Def Con from 1.38308e-06 to 1.38308e-06
Heightened Def Con from 1.38308e-06 ++to 1.38308e-06
Heightened Def Con from 1.38308e-06 to 1.38311e-06
Heightened Def Con from 1.38311e-06 to 1.38311e-06
Heightened Def Con from 1.38312e-06 to 1.38313e-06
Heightened Def Con from 1.38313e-06 +++to 1.38313e-06
Heightened Def Con from 1.38313e-06 to 1.38513e-06
Heightened Def Con from 1.38516e-06 to 1.38517e-06
Heightened Def Con from 1.38517e-06 +to 1.38617e-06
Heightened Def Con from 1.38617e-06 to 1.3863e-06
Heightened Def Con from 1.3863e-06 to 1.3863e-06
Heightened Def Con from 1.3863e-06 +to 1.38631e-06
Heightened Def Con from 1.38631e-06 to 1.38632e-06
Heightened Def Con from 1.38632e-06 to 1.38632e-06
Heightened Def Con from 1.38632e-06 +to 1.38633e-06
Heightened Def Con from 1.38633e-06 +to 1.38647e-06
Heightened Def Con from 1.38647e-06 to 1.38647e-06
Heightened Def Con from 1.38647e-06 to 1.38647e-06
Heightened Def Con from 1.38647e-06 to 1.38647e-06
Heightened Def Con from 1.38647e-06 to 1.38649e-06
Heightened Def Con from 1.38649e-06 to 1.38649e-06
Heightened Def Con from 1.38649e-06 to 1.3865e-06
Heightened Def Con from 1.3865e-06 to 1.3865e-06
Heightened Def Con from 1.3865e-06 to 1.38652e-06
Heightened Def Con from 1.38652e-06 to 1.38653e-06
Heightened Def Con from 1.38653e-06 to 1.38653e-06
Heightened Def Con from 1.38653e-06 to 1.38755e-06
Heightened Def Con from 1.38755e-06 ++++to 1.38855e-06
Heightened Def Con from 1.38855e-06 to 1.38855e-06
Heightened Def Con from 1.38855e-06 +to 1.38855e-06
Heightened Def Con from 1.38855e-06 to 1.38855e-06
Heightened Def Con from 1.38855e-06 to 1.38868e-06
Heightened Def Con from 1.38868e-06 to 1.38868e-06
Heightened Def Con from 1.38868e-06 to 1.38868e-06
Heightened Def Con from 1.38868e-06 to 1.38968e-06
Heightened Def Con from 1.38968e-06 to 1.3907e-06
Heightened Def Con from 1.3907e-06 to 1.3907e-06
Heightened Def Con from 1.3907e-06 +to 1.3907e-06
Heightened Def Con from 1.3907e-06 to 1.39082e-06
Heightened Def Con from 1.39082e-06 to 1.39182e-06
Heightened Def Con from 1.39182e-06 to 1.39282e-06
Heightened Def Con from 1.39283e-06 +to 1.39383e-06
Heightened Def Con from 1.39383e-06 to 1.39383e-06
Heightened Def Con from 1.39383e-06 to 1.39383e-06
Heightened Def Con from 1.39383e-06 to 1.39383e-06
Heightened Def Con from 1.39383e-06 to 1.39383e-06
Heightened Def Con from 1.39383e-06 +to 1.39383e-06
Heightened Def Con from 1.39383e-06 +to 1.39383e-06
Heightened Def Con from 1.39383e-06 to 1.39383e-06
Heightened Def Con from 1.39383e-06 to 1.39383e-06
Heightened Def Con from 1.39383e-06 to 1.39383e-06
Heightened Def Con from 1.39383e-06 to 1.39383e-06
Heightened Def Con from 1.39383e-06 to 1.39383e-06
Heightened Def Con from 1.39383e-06 +to 1.39396e-06
Heightened Def Con from 1.39396e-06 ++to 1.39397e-06
Heightened Def Con from 1.39397e-06 to 1.39397e-06
Heightened Def Con from 1.39397e-06 to 1.39397e-06
Heightened Def Con from 1.39397e-06 ++to 1.39397e-06
Heightened Def Con from 1.39397e-06 to 1.39397e-06
Heightened Def Con from 1.39397e-06 to 1.39397e-06
Heightened Def Con from 1.39397e-06 ++to 1.39398e-06
Heightened Def Con from 1.39398e-06 ++to 1.39399e-06
Heightened Def Con from 1.39399e-06 +to 1.39499e-06
Heightened Def Con from 1.40099e-06 to 1.40124e-06
Heightened Def Con from 1.40124e-06 to 1.40124e-06
Heightened Def Con from 1.40124e-06 to 1.40124e-06
Heightened Def Con from 1.40124e-06 to 1.40226e-06
Heightened Def Con from 1.40226e-06 to 1.40227e-06
Heightened Def Con from 1.40227e-06 to 1.4024e-06
Heightened Def Con from 1.4024e-06 to 1.40252e-06
Heightened Def Con from 1.40252e-06 to 1.40352e-06
Heightened Def Con from 1.40352e-06 +++to 1.40352e-06
Heightened Def Con from 1.40352e-06 to 1.40353e-06
Heightened Def Con from 1.40353e-06 +to 1.40453e-06
Heightened Def Con from 1.40453e-06 +to 1.40453e-06
Heightened Def Con from 1.40453e-06 to 1.40453e-06
Heightened Def Con from 1.40453e-06 +to 1.40453e-06
Heightened Def Con from 1.40453e-06 +to 1.40453e-06
Heightened Def Con from 1.40453e-06 ++to 1.40454e-06
Heightened Def Con from 1.40454e-06 +++to 1.40554e-06
Heightened Def Con from 1.40761e-06 +to 1.40762e-06
Heightened Def Con from 1.40762e-06 to 1.40775e-06
Heightened Def Con from 1.40775e-06 ++++to 1.40875e-06
Heightened Def Con from 1.40875e-06 to 1.40876e-06
Heightened Def Con from 1.40876e-06 to 1.40877e-06
Heightened Def Con from 1.40877e-06 to 1.40989e-06
Heightened Def Con from 1.40989e-06 to 1.41003e-06
Heightened Def Con from 1.41003e-06 to 1.41005e-06
Heightened Def Con from 1.41005e-06 to 1.41006e-06
Heightened Def Con from 1.41007e-06 to 1.41007e-06
Heightened Def Con from 1.41007e-06 to 1.41019e-06
Heightened Def Con from 1.41019e-06 to 1.41019e-06
Heightened Def Con from 1.41019e-06 to 1.41019e-06
Heightened Def Con from 1.41019e-06 to 1.41019e-06
Heightened Def Con from 1.41019e-06 to 1.41033e-06
Heightened Def Con from 1.41033e-06 to 1.41034e-06
Heightened Def Con from 1.41034e-06 +to 1.41034e-06
Heightened Def Con from 1.41034e-06 to 1.41034e-06
Heightened Def Con from 1.41034e-06 +to 1.41046e-06
Heightened Def Con from 1.41047e-06 to 1.41047e-06
Heightened Def Con from 1.41047e-06 to 1.41147e-06
Heightened Def Con from 1.41147e-06 +to 1.41247e-06
Heightened Def Con from 1.41247e-06 +to 1.41259e-06
Heightened Def Con from 1.41259e-06 +to 1.41259e-06
Heightened Def Con from 1.41259e-06 +to 1.41261e-06
Heightened Def Con from 1.41261e-06 to 1.41274e-06
Heightened Def Con from 1.41274e-06 to 1.41386e-06
Heightened Def Con from 1.41386e-06 to 1.41399e-06
Heightened Def Con from 1.41399e-06 to 1.41399e-06
Heightened Def Con from 1.41399e-06 to 1.41399e-06
Heightened Def Con from 1.41399e-06 to 1.41399e-06
Heightened Def Con from 1.41399e-06 +to 1.41412e-06
Heightened Def Con from 1.41415e-06 to 1.41415e-06
Heightened Def Con from 1.41415e-06 to 1.41416e-06
Heightened Def Con from 1.41416e-06 to 1.41416e-06
Heightened Def Con from 1.41416e-06 to 1.41417e-06
Heightened Def Con from 1.41417e-06 +to 1.41517e-06
Heightened Def Con from 1.41521e-06 +to 1.41534e-06
Heightened Def Con from 1.41534e-06 to 1.41535e-06
Heightened Def Con from 1.41535e-06 +to 1.41635e-06
Heightened Def Con from 1.41635e-06 to 1.41735e-06
Heightened Def Con from 1.41735e-06 to 1.41737e-06
Heightened Def Con from 1.41737e-06 +to 1.41737e-06
Heightened Def Con from 1.41737e-06 to 1.41737e-06
Heightened Def Con from 1.41737e-06 to 1.41737e-06
Heightened Def Con from 1.41737e-06 +to 1.41737e-06
Heightened Def Con from 1.41737e-06 ++++to 1.41837e-06
Heightened Def Con from 1.42037e-06 to 1.42037e-06
Heightened Def Con from 1.42037e-06 +to 1.4205e-06
Heightened Def Con from 1.4205e-06 +to 1.42062e-06
Heightened Def Con from 1.42117e-06 to 1.42117e-06
Heightened Def Con from 1.42117e-06 to 1.4213e-06
Heightened Def Con from 1.4213e-06 to 1.4213e-06
Heightened Def Con from 1.4213e-06 to 1.42131e-06
Heightened Def Con from 1.42131e-06 to 1.42131e-06
Heightened Def Con from 1.42131e-06 to 1.42131e-06
Heightened Def Con from 1.42131e-06 +to 1.42131e-06
Heightened Def Con from 1.42131e-06 +to 1.42132e-06
Heightened Def Con from 1.42132e-06 to 1.42132e-06
Heightened Def Con from 1.42132e-06 to 1.42132e-06
Heightened Def Con from 1.42132e-06 to 1.42132e-06
Heightened Def Con from 1.42132e-06 to 1.42132e-06
Heightened Def Con from 1.42132e-06 to 1.42132e-06
Heightened Def Con from 1.42132e-06 to 1.42132e-06
Heightened Def Con from 1.42132e-06 to 1.42132e-06
Heightened Def Con from 1.42132e-06 to 1.42134e-06
Heightened Def Con from 1.42134e-06 to 1.42134e-06
Heightened Def Con from 1.42134e-06 +to 1.42234e-06
Heightened Def Con from 1.42237e-06 to 1.42238e-06
Heightened Def Con from 1.42238e-06 to 1.42251e-06
Heightened Def Con from 1.42251e-06 to 1.42254e-06
Heightened Def Con from 1.42257e-06 to 1.42257e-06
Heightened Def Con from 1.42257e-06 to 1.42257e-06
Heightened Def Con from 1.42257e-06 ++to 1.42257e-06
Heightened Def Con from 1.42257e-06 to 1.4226e-06
Heightened Def Con from 1.4226e-06 to 1.4226e-06
Heightened Def Con from 1.4226e-06 to 1.4226e-06
Heightened Def Con from 1.4226e-06 to 1.4226e-06
Heightened Def Con from 1.4226e-06 +to 1.42262e-06
Heightened Def Con from 1.42262e-06 to 1.42363e-06
Heightened Def Con from 1.42364e-06 to 1.42364e-06
Heightened Def Con from 1.42364e-06 +to 1.42364e-06
Heightened Def Con from 1.42364e-06 to 1.42364e-06
Heightened Def Con from 1.42364e-06 to 1.42367e-06
Heightened Def Con from 1.42367e-06 to 1.42367e-06
Heightened Def Con from 1.42367e-06 to 1.42368e-06
Heightened Def Con from 1.42368e-06 to 1.4237e-06
Heightened Def Con from 1.4237e-06 to 1.4237e-06
Heightened Def Con from 1.4237e-06 +to 1.42372e-06
Heightened Def Con from 1.42372e-06 to 1.42372e-06
Heightened Def Con from 1.42372e-06 to 1.42374e-06
Heightened Def Con from 1.42374e-06 to 1.42375e-06
Heightened Def Con from 1.42375e-06 to 1.42375e-06
Heightened Def Con from 1.42375e-06 to 1.42378e-06
Heightened Def Con from 1.42382e-06 ++to 1.42494e-06
Heightened Def Con from 1.42498e-06 to 1.42498e-06
Heightened Def Con from 1.42498e-06 to 1.42498e-06
Heightened Def Con from 1.42498e-06 +++to 1.42511e-06
Heightened Def Con from 1.42511e-06 +to 1.42611e-06
Heightened Def Con from 1.42617e-06 to 1.42617e-06
Heightened Def Con from 1.42617e-06 to 1.42617e-06
Heightened Def Con from 1.42617e-06 to 1.42617e-06
Heightened Def Con from 1.42617e-06 to 1.42629e-06
Heightened Def Con from 1.42629e-06 to 1.42742e-06
Heightened Def Con from 1.42742e-06 to 1.42744e-06
Heightened Def Con from 1.42744e-06 to 1.42744e-06
Heightened Def Con from 1.42744e-06 to 1.42744e-06
Heightened Def Con from 1.42744e-06 +to 1.42944e-06
Heightened Def Con from 1.42953e-06 to 1.42953e-06
Heightened Def Con from 1.42953e-06 to 1.42953e-06
Heightened Def Con from 1.42953e-06 +to 1.42966e-06
Heightened Def Con from 1.42966e-06 +to 1.42967e-06
Heightened Def Con from 1.42967e-06 to 1.42968e-06
Heightened Def Con from 1.42968e-06 to 1.42993e-06
Heightened Def Con from 1.43018e-06 +to 1.43118e-06
Heightened Def Con from 1.43119e-06 to 1.43219e-06
Heightened Def Con from 1.43219e-06 to 1.43222e-06
Heightened Def Con from 1.43225e-06 ++to 1.43238e-06
Heightened Def Con from 1.43238e-06 ++to 1.4325e-06
Heightened Def Con from 1.4325e-06 to 1.4335e-06
Heightened Def Con from 1.4335e-06 to 1.4335e-06
Heightened Def Con from 1.4335e-06 to 1.4335e-06
Heightened Def Con from 1.4335e-06 to 1.4335e-06
Heightened Def Con from 1.4335e-06 +to 1.43352e-06
Heightened Def Con from 1.43352e-06 to 1.43453e-06
Heightened Def Con from 1.43453e-06 +to 1.43453e-06
Heightened Def Con from 1.43453e-06 to 1.43453e-06
Heightened Def Con from 1.43453e-06 +to 1.43466e-06
Heightened Def Con from 1.43466e-06 +to 1.43466e-06
Heightened Def Con from 1.43466e-06 to 1.43466e-06
Heightened Def Con from 1.43466e-06 +to 1.43466e-06
Heightened Def Con from 1.43466e-06 +to 1.43466e-06
Heightened Def Con from 1.43466e-06 +to 1.43468e-06
Heightened Def Con from 1.43468e-06 +to 1.43468e-06
Heightened Def Con from 1.43468e-06 to 1.43468e-06
Heightened Def Con from 1.43468e-06 to 1.43468e-06
Heightened Def Con from 1.43468e-06 to 1.43468e-06
Heightened Def Con from 1.43468e-06 to 1.43468e-06
Heightened Def Con from 1.43468e-06 to 1.43468e-06
Heightened Def Con from 1.43468e-06 to 1.43468e-06
Heightened Def Con from 1.43468e-06 to 1.43468e-06
Heightened Def Con from 1.43468e-06 to 1.43468e-06
Heightened Def Con from 1.43468e-06 to 1.43568e-06
Heightened Def Con from 1.43568e-06 to 1.43568e-06
[...]
Heightened Def Con from 1.49384e-06 to 1.49384e-06
Heightened Def Con from 1.49384e-06 to 1.49386e-06
Heightened Def Con from 1.49386e-06 +to 1.49386e-06
Heightened Def Con from 1.49386e-06 +to 1.49386e-06
Heightened Def Con from 1.49386e-06 to 1.49411e-06
Heightened Def Con from 1.49411e-06 to 1.49411e-06
Heightened Def Con from 1.49411e-06 to 1.49411e-06
Heightened Def Con from 1.49411e-06 to 1.49412e-06
Heightened Def Con from 1.49412e-06 to 1.49525e-06
Heightened Def Con from 1.4955e-06 to 1.4955e-06
Heightened Def Con from 1.4955e-06 to 1.4955e-06
Heightened Def Con from 1.4955e-06 to 1.49563e-06
Heightened Def Con from 1.49563e-06 to 1.49563e-06
Heightened Def Con from 1.49563e-06 +to 1.49563e-06
Heightened Def Con from 1.49563e-06 +to 1.49577e-06
Heightened Def Con from 1.49577e-06 ++to 1.49677e-06
Heightened Def Con from 1.49677e-06 to 1.4969e-06
Heightened Def Con from 1.4969e-06 to 1.4969e-06
Heightened Def Con from 1.4969e-06 +to 1.4969e-06
Heightened Def Con from 1.4969e-06 +to 1.4979e-06
Heightened Def Con from 1.4979e-06 to 1.49902e-06
Heightened Def Con from 1.49903e-06 to 1.50003e-06
Heightened Def Con from 1.50003e-06 to 1.50003e-06
Heightened Def Con from 1.50003e-06 to 1.50015e-06
Heightened Def Con from 1.50015e-06 to 1.50015e-06
Heightened Def Con from 1.50015e-06 to 1.50016e-06
Heightened Def Con from 1.50016e-06 to 1.50028e-06
Heightened Def Con from 1.50028e-06 to 1.50028e-06
Heightened Def Con from 1.50028e-06 +to 1.50041e-06
Heightened Def Con from 1.50041e-06 to 1.50041e-06
Heightened Def Con from 1.50041e-06 to 1.50041e-06
Heightened Def Con from 1.50041e-06 to 1.50041e-06
Heightened Def Con from 1.50041e-06 to 1.50055e-06
Heightened Def Con from 1.50055e-06 to 1.50055e-06
Heightened Def Con from 1.50055e-06 to 1.50055e-06
Heightened Def Con from 1.50055e-06 to 1.50057e-06
Heightened Def Con from 1.50057e-06 to 1.5007e-06
Heightened Def Con from 1.5007e-06 to 1.5007e-06
Heightened Def Con from 1.5007e-06 to 1.5007e-06
Heightened Def Con from 1.5007e-06 to 1.50171e-06
Heightened Def Con from 1.50171e-06 +to 1.50171e-06
Heightened Def Con from 1.50171e-06 to 1.50284e-06
Heightened Def Con from 1.50284e-06 to 1.50284e-06
Heightened Def Con from 1.50284e-06 +to 1.50284e-06
Heightened Def Con from 1.50284e-06 to 1.50286e-06
Heightened Def Con from 1.50286e-06 to 1.50286e-06
Heightened Def Con from 1.50286e-06 to 1.50286e-06
Heightened Def Con from 1.50286e-06 to 1.50286e-06
Heightened Def Con from 1.50286e-06 to 1.50286e-06
Heightened Def Con from 1.50286e-06 to 1.50286e-06
Heightened Def Con from 1.50286e-06 to 1.50286e-06
Heightened Def Con from 1.50286e-06 to 1.50286e-06
Heightened Def Con from 1.50286e-06 +to 1.50298e-06
Heightened Def Con from 1.50298e-06 +to 1.50311e-06
Heightened Def Con from 1.50311e-06 to 1.50311e-06
Heightened Def Con from 1.50311e-06 to 1.50311e-06
Heightened Def Con from 1.50311e-06 to 1.50311e-06
Heightened Def Con from 1.50311e-06 to 1.50311e-06
Heightened Def Con from 1.50311e-06 to 1.50311e-06
Heightened Def Con from 1.50311e-06 +to 1.50313e-06
Heightened Def Con from 1.50313e-06 to 1.50313e-06
Heightened Def Con from 1.50313e-06 to 1.50313e-06
Heightened Def Con from 1.50313e-06 to 1.50313e-06
Heightened Def Con from 1.50313e-06 to 1.50313e-06
Heightened Def Con from 1.50313e-06 to 1.50313e-06
Heightened Def Con from 1.50313e-06 to 1.50313e-06
Heightened Def Con from 1.50313e-06 to 1.50313e-06
Heightened Def Con from 1.50313e-06 to 1.50313e-06
Heightened Def Con from 1.50313e-06 to 1.50313e-06
Heightened Def Con from 1.50313e-06 to 1.50313e-06
Heightened Def Con from 1.50313e-06 to 1.50338e-06
Heightened Def Con from 1.50338e-06 +to 1.50352e-06
Heightened Def Con from 1.50352e-06 +to 1.50365e-06
Heightened Def Con from 1.5039e-06 +++to 1.5049e-06
Heightened Def Con from 1.50691e-06 to 1.50691e-06
Heightened Def Con from 1.50691e-06 to 1.50691e-06
Heightened Def Con from 1.50691e-06 to 1.50691e-06
Heightened Def Con from 1.50691e-06 to 1.50691e-06
Heightened Def Con from 1.50691e-06 to 1.50704e-06
Heightened Def Con from 1.50704e-06 to 1.50704e-06
Heightened Def Con from 1.50704e-06 ++to 1.50804e-06
Heightened Def Con from 1.50804e-06 ++to 1.50804e-06
Heightened Def Con from 1.50804e-06 to 1.50804e-06
Heightened Def Con from 1.50804e-06 to 1.50816e-06
Heightened Def Con from 1.50816e-06 to 1.50816e-06
Heightened Def Con from 1.50816e-06 +to 1.50829e-06
Heightened Def Con from 1.50854e-06 to 1.50854e-06
Heightened Def Con from 1.50854e-06 +to 1.50854e-06
Heightened Def Con from 1.50854e-06 +to 1.50854e-06
Heightened Def Con from 1.50854e-06 +to 1.50856e-06
Heightened Def Con from 1.50856e-06 to 1.50856e-06
Heightened Def Con from 1.50856e-06 to 1.50957e-06
Heightened Def Con from 1.50958e-06 to 1.50959e-06
Heightened Def Con from 1.50959e-06 +to 1.51159e-06
Heightened Def Con from 1.51159e-06 +to 1.51259e-06
Heightened Def Con from 1.52659e-06 to 1.52659e-06
Heightened Def Con from 1.52659e-06 to 1.52659e-06
Heightened Def Con from 1.52659e-06 to 1.52672e-06
Heightened Def Con from 1.52672e-06 +to 1.52672e-06
Heightened Def Con from 1.52672e-06 +to 1.52685e-06
Heightened Def Con from 1.52685e-06 to 1.52785e-06
Heightened Def Con from 1.52785e-06 to 1.52797e-06
Heightened Def Con from 1.52797e-06 to 1.52797e-06
Heightened Def Con from 1.52797e-06 to 1.52897e-06
Heightened Def Con from 1.52897e-06 to 1.52897e-06
Heightened Def Con from 1.52897e-06 to 1.5291e-06
Heightened Def Con from 1.5291e-06 to 1.5291e-06
Heightened Def Con from 1.5291e-06 to 1.5291e-06
Heightened Def Con from 1.5291e-06 to 1.5291e-06
Heightened Def Con from 1.52911e-06 to 1.52911e-06
Heightened Def Con from 1.52911e-06 to 1.52911e-06
Heightened Def Con from 1.52911e-06 to 1.52911e-06
Heightened Def Con from 1.52911e-06 to 1.52911e-06
Heightened Def Con from 1.52911e-06 to 1.53013e-06
Heightened Def Con from 1.53013e-06 to 1.53013e-06
Heightened Def Con from 1.53013e-06 to 1.53013e-06
Heightened Def Con from 1.53013e-06 to 1.53014e-06
Heightened Def Con from 1.53015e-06 to 1.53015e-06
Heightened Def Con from 1.53015e-06 to 1.53017e-06
Heightened Def Con from 1.53017e-06 to 1.53019e-06
Heightened Def Con from 1.53019e-06 to 1.53019e-06
Heightened Def Con from 1.5302e-06 to 1.53045e-06
Heightened Def Con from 1.53067e-06 to 1.53079e-06
Heightened Def Con from 1.53079e-06 to 1.53092e-06
Heightened Def Con from 1.53092e-06 to 1.53092e-06
Heightened Def Con from 1.53092e-06 to 1.53092e-06
Heightened Def Con from 1.53092e-06 to 1.53092e-06
Heightened Def Con from 1.53092e-06 to 1.53194e-06
Heightened Def Con from 1.53194e-06 to 1.53206e-06
Heightened Def Con from 1.53206e-06 +to 1.53231e-06
Heightened Def Con from 1.53231e-06 to 1.53331e-06
Heightened Def Con from 1.53349e-06 to 1.53349e-06
Heightened Def Con from 1.53349e-06 to 1.53462e-06
Heightened Def Con from 1.53465e-06 to 1.53477e-06
Heightened Def Con from 1.53477e-06 to 1.53577e-06
Heightened Def Con from 1.53577e-06 to 1.5359e-06
Heightened Def Con from 1.5359e-06 to 1.5359e-06
Heightened Def Con from 1.5359e-06 to 1.53591e-06
Heightened Def Con from 1.53591e-06 to 1.53592e-06
Heightened Def Con from 1.53593e-06 to 1.53593e-06
Heightened Def Con from 1.53593e-06 to 1.53593e-06
Heightened Def Con from 1.53593e-06 to 1.53593e-06
Heightened Def Con from 1.53594e-06 to 1.53595e-06
Heightened Def Con from 1.53595e-06 to 1.53595e-06
Heightened Def Con from 1.53595e-06 to 1.53695e-06
Heightened Def Con from 1.53696e-06 to 1.53896e-06
Heightened Def Con from 1.53899e-06 to 1.53899e-06
Heightened Def Con from 1.53899e-06 to 1.54099e-06
Heightened Def Con from 1.54099e-06 to 1.54199e-06
Heightened Def Con from 1.54199e-06 to 1.54199e-06
Heightened Def Con from 1.54199e-06 to 1.54199e-06
Heightened Def Con from 1.54199e-06 to 1.54299e-06
Heightened Def Con from 1.54299e-06 to 1.54299e-06
Heightened Def Con from 1.54299e-06 to 1.54312e-06
Heightened Def Con from 1.54312e-06 to 1.54312e-06
Heightened Def Con from 1.54312e-06 to 1.54312e-06
Heightened Def Con from 1.54312e-06 to 1.54326e-06
Heightened Def Con from 1.54336e-06 to 1.54336e-06
Heightened Def Con from 1.54336e-06 to 1.54336e-06
Heightened Def Con from 1.54336e-06 to 1.54438e-06
Heightened Def Con from 1.54438e-06 to 1.54441e-06
Heightened Def Con from 1.54441e-06 to 1.54443e-06
Heightened Def Con from 1.54443e-06 to 1.54444e-06
Heightened Def Con from 1.54444e-06 ++to 1.54444e-06
Heightened Def Con from 1.54444e-06 to 1.54444e-06
Heightened Def Con from 1.54444e-06 to 1.54444e-06
Heightened Def Con from 1.54444e-06 to 1.54444e-06
Heightened Def Con from 1.54444e-06 to 1.54457e-06
Heightened Def Con from 1.54458e-06 to 1.54471e-06
Heightened Def Con from 1.54471e-06 to 1.54471e-06
Heightened Def Con from 1.54471e-06 to 1.54572e-06
Heightened Def Con from 1.54573e-06 +to 1.54587e-06
Heightened Def Con from 1.54587e-06 +to 1.54687e-06
Heightened Def Con from 1.54687e-06 to 1.54687e-06
Heightened Def Con from 1.54687e-06 +to 1.54699e-06
Heightened Def Con from 1.54699e-06 to 1.54699e-06
Heightened Def Con from 1.54699e-06 to 1.547e-06
Heightened Def Con from 1.547e-06 to 1.547e-06
Heightened Def Con from 1.547e-06 to 1.54712e-06
Heightened Def Con from 1.54712e-06 to 1.54712e-06
Heightened Def Con from 1.54712e-06 to 1.54712e-06
Heightened Def Con from 1.54712e-06 to 1.54737e-06
Heightened Def Con from 1.54737e-06 to 1.54737e-06
Heightened Def Con from 1.54737e-06 to 1.54762e-06
Heightened Def Con from 1.54763e-06 to 1.54763e-06
Heightened Def Con from 1.54763e-06 to 1.54763e-06
Heightened Def Con from 1.54763e-06 to 1.54763e-06
Heightened Def Con from 1.54763e-06 to 1.54763e-06
Heightened Def Con from 1.54763e-06 to 1.54763e-06
Heightened Def Con from 1.54763e-06 to 1.54863e-06
Heightened Def Con from 1.54863e-06 ++to 1.55063e-06
Heightened Def Con from 1.55063e-06 +to 1.55063e-06
Heightened Def Con from 1.55063e-06 +to 1.55063e-06
Heightened Def Con from 1.55064e-06 to 1.55176e-06
Heightened Def Con from 1.55201e-06 +to 1.55201e-06
Heightened Def Con from 1.55201e-06 to 1.55201e-06
Heightened Def Con from 1.55201e-06 +to 1.55301e-06
Heightened Def Con from 1.55301e-06 +to 1.55401e-06
Heightened Def Con from 1.55401e-06 to 1.55426e-06
Heightened Def Con from 1.55427e-06 to 1.55439e-06
Heightened Def Con from 1.55439e-06 to 1.55441e-06
Heightened Def Con from 1.55441e-06 ++to 1.55441e-06
Heightened Def Con from 1.55441e-06 +to 1.55453e-06
Heightened Def Con from 1.55453e-06 +to 1.55455e-06
Heightened Def Con from 1.55455e-06 to 1.55455e-06
Heightened Def Con from 1.55455e-06 to 1.55455e-06
Heightened Def Con from 1.55455e-06 to 1.55455e-06
Heightened Def Con from 1.55455e-06 +to 1.55455e-06
Heightened Def Con from 1.55455e-06 to 1.55555e-06
Heightened Def Con from 1.55555e-06 +to 1.55556e-06
Heightened Def Con from 1.55556e-06 to 1.55756e-06
Heightened Def Con from 1.55756e-06 to 1.55758e-06
Heightened Def Con from 1.55758e-06 +to 1.55758e-06
Heightened Def Con from 1.55758e-06 to 1.55958e-06
Heightened Def Con from 1.55983e-06 to 1.55983e-06
Heightened Def Con from 1.55983e-06 to 1.56084e-06
Heightened Def Con from 1.56086e-06 to 1.56088e-06
Heightened Def Con from 1.56088e-06 to 1.56088e-06
Heightened Def Con from 1.56088e-06 to 1.56088e-06
Heightened Def Con from 1.56088e-06 to 1.56113e-06
Heightened Def Con from 1.56113e-06 +to 1.56213e-06
Heightened Def Con from 1.56217e-06 to 1.56231e-06
Heightened Def Con from 1.56234e-06 to 1.56247e-06
Heightened Def Con from 1.56247e-06 to 1.56349e-06
Heightened Def Con from 1.56349e-06 to 1.56374e-06
Heightened Def Con from 1.56374e-06 to 1.56374e-06
Heightened Def Con from 1.56374e-06 to 1.56399e-06
Heightened Def Con from 1.56424e-06 to 1.56524e-06
Heightened Def Con from 1.56724e-06 to 1.56749e-06
Heightened Def Con from 1.56793e-06 to 1.56818e-06
Heightened Def Con from 1.56844e-06 to 1.56857e-06
Heightened Def Con from 1.56857e-06 to 1.56857e-06
Heightened Def Con from 1.56857e-06 to 1.56858e-06
Heightened Def Con from 1.56858e-06 to 1.56971e-06
Heightened Def Con from 1.56997e-06 to 1.57097e-06
Heightened Def Con from 1.57097e-06 to 1.57209e-06
Heightened Def Con from 1.57234e-06 to 1.57234e-06
Heightened Def Con from 1.57234e-06 to 1.57234e-06
Heightened Def Con from 1.57234e-06 to 1.57234e-06
Heightened Def Con from 1.57234e-06 to 1.57234e-06
Heightened Def Con from 1.57234e-06 to 1.57234e-06
Heightened Def Con from 1.57235e-06 to 1.57235e-06
Heightened Def Con from 1.57235e-06 ++to 1.57247e-06
Heightened Def Con from 1.5725e-06 to 1.5735e-06
Heightened Def Con from 1.5735e-06 to 1.5735e-06
Heightened Def Con from 1.5735e-06 to 1.57375e-06
Heightened Def Con from 1.57377e-06 to 1.57389e-06
Heightened Def Con from 1.57389e-06 +to 1.57402e-06
Heightened Def Con from 1.57402e-06 +to 1.57414e-06
Heightened Def Con from 1.57414e-06 to 1.57416e-06
Heightened Def Con from 1.57416e-06 to 1.57616e-06
Heightened Def Con from 1.57647e-06 to 1.57672e-06
Heightened Def Con from 1.57672e-06 to 1.57686e-06
Heightened Def Con from 1.57687e-06 to 1.57687e-06
Heightened Def Con from 1.57687e-06 to 1.57687e-06
Heightened Def Con from 1.57687e-06 to 1.577e-06
Heightened Def Con from 1.577e-06 to 1.577e-06
Heightened Def Con from 1.577e-06 to 1.579e-06
Heightened Def Con from 1.58019e-06 to 1.5802e-06
Heightened Def Con from 1.5802e-06 to 1.5802e-06
Heightened Def Con from 1.5802e-06 to 1.58023e-06
Heightened Def Con from 1.58023e-06 to 1.58026e-06
Heightened Def Con from 1.58026e-06 to 1.58026e-06
Heightened Def Con from 1.58026e-06 +to 1.58026e-06
Heightened Def Con from 1.58026e-06 to 1.58039e-06
Heightened Def Con from 1.58039e-06 to 1.58039e-06
Heightened Def Con from 1.58039e-06 to 1.58052e-06
Heightened Def Con from 1.58053e-06 to 1.58253e-06
Heightened Def Con from 1.58453e-06 to 1.58454e-06
Heightened Def Con from 1.58454e-06 to 1.58555e-06
Heightened Def Con from 1.58556e-06 to 1.58556e-06
Heightened Def Con from 1.58556e-06 to 1.58556e-06
Heightened Def Con from 1.58556e-06 to 1.58556e-06
Heightened Def Con from 1.58556e-06 to 1.58556e-06
Heightened Def Con from 1.58556e-06 to 1.58556e-06
Heightened Def Con from 1.58556e-06 to 1.58556e-06
Heightened Def Con from 1.58556e-06 +to 1.58656e-06
Heightened Def Con from 1.58656e-06 to 1.58856e-06
Heightened Def Con from 1.58938e-06 to 1.58963e-06
Heightened Def Con from 1.58985e-06 to 1.59185e-06
Heightened Def Con from 1.59277e-06 to 1.59277e-06
Heightened Def Con from 1.59277e-06 to 1.59377e-06
Heightened Def Con from 1.59377e-06 to 1.59377e-06
Heightened Def Con from 1.59377e-06 to 1.5938e-06
Heightened Def Con from 1.59383e-06 to 1.59385e-06
Heightened Def Con from 1.59385e-06 +to 1.59386e-06
Heightened Def Con from 1.59386e-06 to 1.59401e-06
Heightened Def Con from 1.59408e-06 +to 1.59421e-06
Heightened Def Con from 1.59446e-06 to 1.59471e-06
Heightened Def Con from 1.59546e-06 to 1.59548e-06
Heightened Def Con from 1.59548e-06 to 1.59648e-06
Heightened Def Con from 1.59648e-06 to 1.5965e-06
Heightened Def Con from 1.5965e-06 to 1.5975e-06
Heightened Def Con from 1.5975e-06 to 1.5975e-06
Heightened Def Con from 1.5975e-06 to 1.5975e-06
Heightened Def Con from 1.5975e-06 to 1.5985e-06
Heightened Def Con from 1.59851e-06 to 1.59854e-06
Heightened Def Con from 1.5986e-06 to 1.59885e-06
Heightened Def Con from 1.59886e-06 to 1.60086e-06
Heightened Def Con from 1.60292e-06 to 1.60292e-06
Heightened Def Con from 1.60292e-06 to 1.60292e-06
Heightened Def Con from 1.60292e-06 to 1.60492e-06
Heightened Def Con from 1.60492e-06 to 1.60492e-06
Heightened Def Con from 1.60492e-06 to 1.60692e-06
Heightened Def Con from 1.61403e-06 to 1.61403e-06
Heightened Def Con from 1.61403e-06 to 1.61505e-06
Heightened Def Con from 1.61509e-06 to 1.61534e-06
Heightened Def Con from 1.6156e-06 to 1.61561e-06
Heightened Def Con from 1.61561e-06 to 1.61661e-06
Heightened Def Con from 1.61661e-06 to 1.61675e-06
Heightened Def Con from 1.61766e-06 to 1.6177e-06
Heightened Def Con from 1.6177e-06 to 1.61773e-06
Heightened Def Con from 1.61777e-06 to 1.61889e-06
Heightened Def Con from 1.61903e-06 to 1.61905e-06
Heightened Def Con from 1.61905e-06 to 1.61907e-06
Heightened Def Con from 1.61907e-06 to 1.61932e-06
Heightened Def Con from 1.61957e-06 to 1.61971e-06
Heightened Def Con from 1.61971e-06 to 1.61996e-06
Heightened Def Con from 1.61996e-06 to 1.62196e-06
Heightened Def Con from 1.62196e-06 to 1.62198e-06
Heightened Def Con from 1.62198e-06 to 1.6231e-06
Heightened Def Con from 1.63887e-06 to 1.63887e-06
Heightened Def Con from 1.63887e-06 to 1.63887e-06
Heightened Def Con from 1.63887e-06 to 1.64087e-06
Heightened Def Con from 1.65075e-06 to 1.65077e-06
Heightened Def Con from 1.65077e-06 to 1.65177e-06
Heightened Def Con from 1.65177e-06 to 1.65178e-06
Heightened Def Con from 1.65179e-06 to 1.65179e-06
Heightened Def Con from 1.65289e-06 to 1.65402e-06
Heightened Def Con from 1.65402e-06 to 1.65427e-06
Heightened Def Con from 1.65427e-06 to 1.65627e-06
Heightened Def Con from 1.65654e-06 to 1.65654e-06
Heightened Def Con from 1.65654e-06 to 1.65854e-06
Heightened Def Con from 1.66362e-06 to 1.66364e-06
Heightened Def Con from 1.66364e-06 to 1.66389e-06
Heightened Def Con from 1.66389e-06 to 1.66501e-06
Heightened Def Con from 1.66523e-06 to 1.66523e-06
Heightened Def Con from 1.66523e-06 to 1.66523e-06
Heightened Def Con from 1.66523e-06 to 1.66525e-06
Heightened Def Con from 1.66525e-06 to 1.66525e-06
Heightened Def Con from 1.66525e-06 to 1.66525e-06
Heightened Def Con from 1.66525e-06 to 1.66538e-06
Heightened Def Con from 1.6654e-06 to 1.6654e-06
Heightened Def Con from 1.6654e-06 to 1.66541e-06
Heightened Def Con from 1.66543e-06 to 1.66643e-06
Heightened Def Con from 1.66643e-06 to 1.66643e-06
Heightened Def Con from 1.66643e-06 to 1.66744e-06
Heightened Def Con from 1.66745e-06 to 1.66746e-06
Heightened Def Con from 1.66746e-06 to 1.66746e-06
Heightened Def Con from 1.66746e-06 to 1.66748e-06
Heightened Def Con from 1.66748e-06 to 1.66773e-06
Heightened Def Con from 1.66773e-06 to 1.66773e-06
Heightened Def Con from 1.66773e-06 to 1.66973e-06
Heightened Def Con from 1.66998e-06 to 1.66999e-06
Heightened Def Con from 1.66999e-06 to 1.67099e-06
Heightened Def Con from 1.67099e-06 to 1.67299e-06
Heightened Def Con from 1.67855e-06 to 1.67855e-06
Heightened Def Con from 1.67855e-06 to 1.68055e-06
Heightened Def Con from 1.68063e-06 to 1.68163e-06
Heightened Def Con from 1.68166e-06 to 1.68366e-06
Heightened Def Con from 1.70756e-06 to 1.70956e-06
Heightened Def Con from 1.78203e-06 to 1.78217e-06
Heightened Def Con from 1.7822e-06 to 1.7842e-06
Heightened Def Con from 1.78421e-06 to 1.78423e-06
Heightened Def Con from 1.78423e-06 to 1.78536e-06
Heightened Def Con from 1.78536e-06 to 1.78561e-06
Heightened Def Con from 1.78564e-06 to 1.78589e-06
Heightened Def Con from 1.78593e-06 to 1.78793e-06
Heightened Def Con from 1.78868e-06 to 1.78981e-06
Heightened Def Con from 1.79006e-06 to 1.79031e-06
Heightened Def Con from 1.79031e-06 to 1.79056e-06
Heightened Def Con from 1.79333e-06 to 1.79358e-06
Heightened Def Con from 1.79383e-06 to 1.79483e-06
Heightened Def Con from 1.79483e-06 to 1.79596e-06
Heightened Def Con from 1.79641e-06 to 1.79641e-06
Heightened Def Con from 1.79652e-06 to 1.79852e-06
Heightened Def Con from 1.79975e-06 to 1.79976e-06
Heightened Def Con from 1.79978e-06 to 1.79992e-06
Heightened Def Con from 1.80003e-06 to 1.80115e-06
Heightened Def Con from 1.80131e-06 to 1.80243e-06
Heightened Def Con from 1.85169e-06 to 1.85194e-06
Heightened Def Con from 1.85194e-06 to 1.85394e-06
Heightened Def Con from 1.85994e-06 to 1.86194e-06



.step rosc=8000



.step rosc=10000
tnom = 27
temp = 27
method = modified trap
.step rosc=15000


Measurement: period
  step	period	FROM	TO
     1	3.66422e-08	2.49774e-08	6.16196e-08
     2	0.00510751	0.0048043	0.00991182
     3	5.27101e-08	1.82358e-09	5.45336e-08
     4	2.95518e-07	1.95e-08	3.15018e-07

Measurement: freq
  step	1/period
     1	2.7291e+07
     2	195.79
     3	1.89717e+07
     4	3.38389e+06

Total elapsed time: 12.940 seconds.

